@<TRIPOS>MOLECULE
/home/jovyan/shared-scratch-kabdelma-pvc/kabdelma/HER-metal-complex-ligands/Runs//ni_thd_2_benzimidazole_4_s_1/ni_thd_2_benzimidazole_4_s_1_conf_1
61	68	1
SMALL
PartialCharges
****
Generated from molSimplify

@<TRIPOS>ATOM
1 Ni1	0.0  0.0  0.0 Ni	1 RES1 0.0
2 N1	4.228021  0.79092  -0.028506 N.pl3	1 RES1 0.0
3 C1	2.909026  1.065282  -0.067346 C.3	1 RES1 0.0
4 N2	2.14  0.0  0.0 N.pl3	1 RES1 0.0
5 C2	3.039153  -1.065282  0.067346 C.ar	1 RES1 0.0
6 C3	2.805126  -2.430468  0.17949 C.ar	1 RES1 0.0
7 C4	3.893719  -3.266015  0.260932 C.ar	1 RES1 0.0
8 C5	5.187047  -2.777008  0.210008 C.ar	1 RES1 0.0
9 C6	5.44162  -1.42482  0.100848 C.ar	1 RES1 0.0
10 C7	4.348517  -0.587448  0.040318 C.ar	1 RES1 0.0
11 H1	4.990762  1.467904  -0.046352 H	1 RES1 0.0
12 H2	2.522235  2.05983  -0.145873 H	1 RES1 0.0
13 H3	1.808505  -2.819249  0.201758 H	1 RES1 0.0
14 H4	3.73718  -4.319257  0.366175 H	1 RES1 0.0
15 H5	6.007747  -3.461998  0.256256 H	1 RES1 0.0
16 H6	6.441048  -1.044358  0.06489 H	1 RES1 0.0
17 N3	-0.72811  4.227084  0.322714 N.pl3	1 RES1 0.0
18 C8	-0.062302  3.063483  0.461504 C.3	1 RES1 0.0
19 N4	-0.713377  2.017596  -0.0 N.pl3	1 RES1 0.0
20 C9	-1.920545  2.544471  -0.461504 C.ar	1 RES1 0.0
21 C10	-2.996302  1.915883  -1.076889 C.ar	1 RES1 0.0
22 C11	-4.060818  2.69413  -1.465402 C.ar	1 RES1 0.0
23 C12	-4.082473  4.058265  -1.235001 C.ar	1 RES1 0.0
24 C13	-3.023874  4.70258  -0.627252 C.ar	1 RES1 0.0
25 C14	-1.948872  3.923256  -0.257444 C.ar	1 RES1 0.0
26 H7	-0.39689  5.153211  0.592863 H	1 RES1 0.0
27 H8	0.908287  2.996404  0.906877 H	1 RES1 0.0
28 H9	-2.996063  0.858883  -1.243177 H	1 RES1 0.0
29 H10	-4.892158  2.234151  -1.957533 H	1 RES1 0.0
30 H11	-4.938508  4.626081  -1.534484 H	1 RES1 0.0
31 H12	-3.037155  5.757945  -0.451389 H	1 RES1 0.0
32 N5	-1.035647  -1.465939  3.90909 N.pl3	1 RES1 0.0
33 C15	-0.442195  -0.677345  2.991231 C.3	1 RES1 0.0
34 N6	-0.713375  -1.008786  1.747297 N.pl3	1 RES1 0.0
35 C16	-1.540648  -2.126599  1.865421 C.ar	1 RES1 0.0
36 C17	-2.160196  -2.891294  0.884361 C.ar	1 RES1 0.0
37 C18	-2.960677  -3.932904  1.289435 C.ar	1 RES1 0.0
38 C19	-3.132994  -4.235099  2.628615 C.ar	1 RES1 0.0
39 C20	-2.528532  -3.487359  3.61889 C.ar	1 RES1 0.0
40 C21	-1.743148  -2.43079  3.210765 C.ar	1 RES1 0.0
41 H13	-0.975432  -1.370668  4.922844 H	1 RES1 0.0
42 H14	0.192282  0.144197  3.250859 H	1 RES1 0.0
43 H15	-2.018575  -2.676034  -0.154151 H	1 RES1 0.0
44 H16	-3.46225  -4.52382  0.551775 H	1 RES1 0.0
45 H17	-3.748241  -5.066566  2.902538 H	1 RES1 0.0
46 H18	-2.663375  -3.717232  4.65517 H	1 RES1 0.0
47 N7	-1.203029  -2.688219  -3.13508 N.pl3	1 RES1 0.0
48 C22	-0.665256  -2.306211  -1.95975 C.3	1 RES1 0.0
49 N8	-0.713375  -1.008786  -1.747297 N.pl3	1 RES1 0.0
50 C23	-1.317587  -0.497733  -2.896901 C.ar	1 RES1 0.0
51 C24	-1.653406  0.809464  -3.22787 C.ar	1 RES1 0.0
52 C25	-2.281288  1.028231  -4.431078 C.ar	1 RES1 0.0
53 C26	-2.55435  -0.009644  -5.304388 C.ar	1 RES1 0.0
54 C27	-2.231075  -1.315222  -4.994398 C.ar	1 RES1 0.0
55 C28	-1.620404  -1.534468  -3.778361 C.ar	1 RES1 0.0
56 H19	-1.286623  -3.643094  -3.483829 H	1 RES1 0.0
57 H20	-0.237739  -2.995965  -1.262349 H	1 RES1 0.0
58 H21	-1.430187  1.620577  -2.566682 H	1 RES1 0.0
59 H22	-2.565505  2.024522  -4.698518 H	1 RES1 0.0
60 H23	-3.026409  0.2045  -6.240445 H	1 RES1 0.0
61 H24	-2.444602  -2.11968  -5.666821 H	1 RES1 0.0
@<TRIPOS>BOND
1 1 4 1
1 1 19 1
1 1 34 1
1 1 49 1
1 2 3 1
1 2 10 1
1 2 11 1
1 3 4 1
1 3 12 1
1 4 5 1
1 5 6 2
1 5 10 1
1 6 7 1
1 6 13 1
1 7 8 2
1 7 14 1
1 8 9 1
1 8 15 1
1 9 10 2
1 9 16 1
1 17 18 1
1 17 25 1
1 17 26 1
1 18 19 1
1 18 27 1
1 19 20 1
1 20 21 2
1 20 25 1
1 21 22 1
1 21 28 1
1 22 23 2
1 22 29 1
1 23 24 1
1 23 30 1
1 24 25 2
1 24 31 1
1 32 33 1
1 32 40 1
1 32 41 1
1 33 34 1
1 33 42 1
1 34 35 1
1 35 36 2
1 35 40 1
1 36 37 1
1 36 43 1
1 37 38 2
1 37 44 1
1 38 39 1
1 38 45 1
1 39 40 2
1 39 46 1
1 47 48 1
1 47 55 1
1 47 56 1
1 48 49 1
1 48 57 1
1 49 50 1
1 50 51 2
1 50 55 1
1 51 52 1
1 51 58 1
1 52 53 2
1 52 59 1
1 53 54 1
1 53 60 1
1 54 55 2
1 54 61 1
@<TRIPOS>SUBSTRUCTURE
1 RES1 61

