@<TRIPOS>MOLECULE
/Users/abdulahmed/Documents/GitHub/HER-metal-complex-ligands/Runs//ni_oct_2_1_10phenanthroline_anhyd_3_s_1/ni_oct_2_1_10phenanthroline_anhyd_3_s_1_conf_1
67	78	1
SMALL
PartialCharges
****
Generated from molSimplify

@<TRIPOS>ATOM
1 Ni1	0.0  0.0  0.0 Ni	1 RES1 0.0
2 C1	-0.673306  4.452466  -0.027181 C.2	1 RES1 0.0
3 C2	-0.948545  3.100021  -0.000212 C.2	1 RES1 0.0
4 N1	0.0  2.14  -0.0 N.pl3	1 RES1 0.0
5 C3	1.296032  2.510788  -0.027601 C.ar	1 RES1 0.0
6 C4	1.670961  3.874556  -0.056401 C.ar	1 RES1 0.0
7 C5	0.658711  4.843969  -0.05571 C.2	1 RES1 0.0
8 C6	3.022532  4.239036  -0.084814 C.ar	1 RES1 0.0
9 C7	4.00521  3.256357  -0.084814 C.ar	1 RES1 0.0
10 C8	3.640727  1.904788  -0.056401 C.ar	1 RES1 0.0
11 C9	4.610138  0.892534  -0.05571 C.2	1 RES1 0.0
12 C10	4.218631  -0.439481  -0.027181 C.2	1 RES1 0.0
13 C11	2.866185  -0.714716  -0.000212 C.2	1 RES1 0.0
14 N2	1.906168  0.233832  -0.0 N.pl3	1 RES1 0.0
15 C12	2.276958  1.529862  -0.027601 C.ar	1 RES1 0.0
16 H1	-1.474818  5.181949  -0.026009 H	1 RES1 0.0
17 H2	-1.971147  2.734367  0.022769 H	1 RES1 0.0
18 H3	0.901321  5.903279  -0.07728 H	1 RES1 0.0
19 H4	3.316095  5.286038  -0.107015 H	1 RES1 0.0
20 H5	5.052212  3.549918  -0.107015 H	1 RES1 0.0
21 H6	5.669449  1.135142  -0.077281 H	1 RES1 0.0
22 H7	4.948112  -1.240996  -0.026009 H	1 RES1 0.0
23 H8	2.500528  -1.737317  0.022769 H	1 RES1 0.0
24 C13	-0.027181  -4.452466  -0.673306 C.2	1 RES1 0.0
25 C14	-0.000212  -3.100021  -0.948545 C.2	1 RES1 0.0
26 N3	-0.0  -2.14  0.0 N.pl3	1 RES1 0.0
27 C15	-0.027601  -2.510788  1.296032 C.ar	1 RES1 0.0
28 C16	-0.056401  -3.874556  1.670961 C.ar	1 RES1 0.0
29 C17	-0.05571  -4.843969  0.658711 C.2	1 RES1 0.0
30 C18	-0.084814  -4.239036  3.022532 C.ar	1 RES1 0.0
31 C19	-0.084814  -3.256357  4.00521 C.ar	1 RES1 0.0
32 C20	-0.056401  -1.904788  3.640727 C.ar	1 RES1 0.0
33 C21	-0.05571  -0.892534  4.610138 C.2	1 RES1 0.0
34 C22	-0.027181  0.439481  4.218631 C.2	1 RES1 0.0
35 C23	-0.000212  0.714716  2.866185 C.2	1 RES1 0.0
36 N4	-0.0  -0.233832  1.906168 N.pl3	1 RES1 0.0
37 C24	-0.027601  -1.529862  2.276958 C.ar	1 RES1 0.0
38 H9	-0.026009  -5.181949  -1.474818 H	1 RES1 0.0
39 H10	0.022769  -2.734367  -1.971147 H	1 RES1 0.0
40 H11	-0.07728  -5.903279  0.901321 H	1 RES1 0.0
41 H12	-0.107015  -5.286038  3.316095 H	1 RES1 0.0
42 H13	-0.107015  -3.549918  5.052212 H	1 RES1 0.0
43 H14	-0.077281  -1.135142  5.669449 H	1 RES1 0.0
44 H15	-0.026009  1.240996  4.948112 H	1 RES1 0.0
45 H16	0.022769  1.737317  2.500528 H	1 RES1 0.0
46 C25	-4.452466  -0.027181  0.673306 C.2	1 RES1 0.0
47 C26	-3.100021  -0.000212  0.948545 C.2	1 RES1 0.0
48 N5	-2.14  0.0  0.0 N.pl3	1 RES1 0.0
49 C27	-2.510788  -0.027601  -1.296032 C.ar	1 RES1 0.0
50 C28	-3.874556  -0.056401  -1.670961 C.ar	1 RES1 0.0
51 C29	-4.843969  -0.05571  -0.658711 C.2	1 RES1 0.0
52 C30	-4.239036  -0.084814  -3.022532 C.ar	1 RES1 0.0
53 C31	-3.256357  -0.084814  -4.00521 C.ar	1 RES1 0.0
54 C32	-1.904788  -0.056401  -3.640727 C.ar	1 RES1 0.0
55 C33	-0.892534  -0.05571  -4.610138 C.2	1 RES1 0.0
56 C34	0.439481  -0.027181  -4.218631 C.2	1 RES1 0.0
57 C35	0.714716  -0.000212  -2.866185 C.2	1 RES1 0.0
58 N6	-0.233832  -0.0  -1.906168 N.pl3	1 RES1 0.0
59 C36	-1.529862  -0.027601  -2.276958 C.ar	1 RES1 0.0
60 H17	-5.181949  -0.026009  1.474818 H	1 RES1 0.0
61 H18	-2.734367  0.022769  1.971147 H	1 RES1 0.0
62 H19	-5.903279  -0.07728  -0.901321 H	1 RES1 0.0
63 H20	-5.286038  -0.107015  -3.316095 H	1 RES1 0.0
64 H21	-3.549918  -0.107015  -5.052212 H	1 RES1 0.0
65 H22	-1.135142  -0.077281  -5.669449 H	1 RES1 0.0
66 H23	1.240996  -0.026009  -4.948112 H	1 RES1 0.0
67 H24	1.737317  0.022769  -2.500528 H	1 RES1 0.0
@<TRIPOS>BOND
1 1 4 1
1 1 14 1
1 1 26 1
1 1 36 1
1 1 48 1
1 1 58 1
1 2 3 2
1 2 7 1
1 2 16 1
1 3 4 1
1 3 17 1
1 4 5 1
1 5 6 1
1 5 15 2
1 6 7 2
1 6 8 1
1 7 18 1
1 8 9 2
1 8 19 1
1 9 10 1
1 9 20 1
1 10 11 2
1 10 15 1
1 11 12 1
1 11 21 1
1 12 13 2
1 12 22 1
1 13 14 1
1 13 23 1
1 14 15 1
1 24 25 2
1 24 29 1
1 24 38 1
1 25 26 1
1 25 39 1
1 26 27 1
1 27 28 1
1 27 37 2
1 28 29 2
1 28 30 1
1 29 40 1
1 30 31 2
1 30 41 1
1 31 32 1
1 31 42 1
1 32 33 2
1 32 37 1
1 33 34 1
1 33 43 1
1 34 35 2
1 34 44 1
1 35 36 1
1 35 45 1
1 36 37 1
1 46 47 2
1 46 51 1
1 46 60 1
1 47 48 1
1 47 61 1
1 48 49 1
1 49 50 1
1 49 59 2
1 50 51 2
1 50 52 1
1 51 62 1
1 52 53 2
1 52 63 1
1 53 54 1
1 53 64 1
1 54 55 2
1 54 59 1
1 55 56 1
1 55 65 1
1 56 57 2
1 56 66 1
1 57 58 1
1 57 67 1
1 58 59 1
@<TRIPOS>SUBSTRUCTURE
1 RES1 67

