@<TRIPOS>MOLECULE
/Users/abdulahmed/Documents/GitHub/HER-metal-complex-ligands/Runs//5_chloropyridine_2_thiol/5_chloropyridine_2_thiol
34	39	1
SMALL
PartialCharges
****
Generated from molSimplify

@<TRIPOS>ATOM
1 Ni1	0.0  0.0  0.0 Ni	1 RES1 0.0
2 S1	0.0  2.23  0.0 S.3	1 RES1 0.0
3 C1	1.616296  1.763418  -0.03136 C.3	1 RES1 0.0
4 C2	2.644095  2.69211  -0.084725 C.2	1 RES1 0.0
5 C3	3.95458  2.219888  -0.107589 C.2	1 RES1 0.0
6 C4	4.170874  0.848402  -0.07608 C.2	1 RES1 0.0
7 Cl1	5.767629  0.213245  -0.102308 Cl	1 RES1 0.0
8 C5	3.068293  0.008114  -0.023086 C.2	1 RES1 0.0
9 N1	1.78776  0.44224  0.0 N.pl3	1 RES1 0.0
10 H1	2.433  3.755271  -0.107966 H	1 RES1 0.0
11 H2	4.780378  2.919761  -0.149204 H	1 RES1 0.0
12 H3	3.176948  -1.069987  0.003356 H	1 RES1 0.0
13 S2	-0.0  -2.23  0.0 S.3	1 RES1 0.0
14 C6	-0.03136  -1.763418  1.616296 C.3	1 RES1 0.0
15 C7	-0.084725  -2.69211  2.644095 C.2	1 RES1 0.0
16 C8	-0.107589  -2.219888  3.95458 C.2	1 RES1 0.0
17 C9	-0.07608  -0.848402  4.170874 C.2	1 RES1 0.0
18 Cl2	-0.102308  -0.213245  5.767629 Cl	1 RES1 0.0
19 C10	-0.023086  -0.008114  3.068293 C.2	1 RES1 0.0
20 N2	-0.0  -0.44224  1.78776 N.pl3	1 RES1 0.0
21 H4	-0.107966  -3.755271  2.433 H	1 RES1 0.0
22 H5	-0.149204  -2.919761  4.780378 H	1 RES1 0.0
23 H6	0.003356  1.069987  3.176948 H	1 RES1 0.0
24 S3	-2.23  0.0  0.0 S.3	1 RES1 0.0
25 C11	-1.763418  -0.03136  -1.616296 C.3	1 RES1 0.0
26 C12	-2.69211  -0.084725  -2.644095 C.2	1 RES1 0.0
27 C13	-2.219888  -0.107589  -3.95458 C.2	1 RES1 0.0
28 C14	-0.848402  -0.07608  -4.170874 C.2	1 RES1 0.0
29 Cl3	-0.213245  -0.102308  -5.767629 Cl	1 RES1 0.0
30 C15	-0.008114  -0.023086  -3.068293 C.2	1 RES1 0.0
31 N3	-0.44224  0.0  -1.78776 N.pl3	1 RES1 0.0
32 H7	-3.755271  -0.107966  -2.433 H	1 RES1 0.0
33 H8	-2.919761  -0.149204  -4.780378 H	1 RES1 0.0
34 H9	1.069987  0.003356  -3.176948 H	1 RES1 0.0
@<TRIPOS>BOND
1 1 2 1
1 1 9 1
1 1 13 1
1 1 20 1
1 1 24 1
1 1 31 1
1 2 3 1
1 3 4 1
1 3 9 1
1 4 5 2
1 4 10 1
1 5 6 1
1 5 11 1
1 6 7 1
1 6 8 2
1 8 9 1
1 8 12 1
1 13 14 1
1 14 15 1
1 14 20 1
1 15 16 2
1 15 21 1
1 16 17 1
1 16 22 1
1 17 18 1
1 17 19 2
1 19 20 1
1 19 23 1
1 24 25 1
1 25 26 1
1 25 31 1
1 26 27 2
1 26 32 1
1 27 28 1
1 27 33 1
1 28 29 1
1 28 30 2
1 30 31 1
1 30 34 1
@<TRIPOS>SUBSTRUCTURE
1 RES1 34

