@<TRIPOS>MOLECULE
/Users/abdulahmed/Documents/GitHub/HER-metal-complex-ligands/Runs//diisobutylamine/diisobutylamine
109	108	1
SMALL
PartialCharges
****
Generated from molSimplify

@<TRIPOS>ATOM
1 Ni1	0.0  0.0  0.0 Ni	1 RES1 0.0
2 C1	3.054458  -0.685194  3.566247 C.3	1 RES1 0.0
3 C2	2.111318  -0.514107  2.386579 C.3	1 RES1 0.0
4 C3	2.988798  -0.252852  1.173247 C.3	1 RES1 0.0
5 C4	3.866535  0.960292  1.43451 C.3	1 RES1 0.0
6 N1	2.14  -0.0  0.0 N.3	1 RES1 0.0
7 C5	2.988798  0.252852  -1.173247 C.3	1 RES1 0.0
8 C6	3.865562  -0.960819  -1.43533 C.3	1 RES1 0.0
9 C7	3.867177  1.465378  -0.911272 C.3	1 RES1 0.0
10 C8	4.744848  1.726836  -2.124422 C.3	1 RES1 0.0
11 H1	3.786597  -1.429662  3.332496 H	1 RES1 0.0
12 H2	2.497193  -0.99087  4.427013 H	1 RES1 0.0
13 H3	3.543506  0.244514  3.769658 H	1 RES1 0.0
14 H4	1.62227  -1.443815  2.183171 H	1 RES1 0.0
15 H5	1.37918  0.230361  2.620331 H	1 RES1 0.0
16 H6	3.60645  -1.10698  0.989204 H	1 RES1 0.0
17 H7	4.924685  1.078411  1.540654 H	1 RES1 0.0
18 H8	3.516464  1.582003  0.637124 H	1 RES1 0.0
19 H9	3.382853  1.243209  2.346052 H	1 RES1 0.0
20 H10	2.371103  0.437707  -2.027168 H	1 RES1 0.0
21 H11	4.424945  -1.193839  -0.553462 H	1 RES1 0.0
22 H12	3.249868  -1.795547  -1.698103 H	1 RES1 0.0
23 H13	4.539068  -0.747429  -2.238919 H	1 RES1 0.0
24 H14	3.249981  2.319739  -0.726782 H	1 RES1 0.0
25 H15	4.48487  1.280518  -0.05735 H	1 RES1 0.0
26 H16	4.127155  1.911697  -2.978343 H	1 RES1 0.0
27 H17	5.363181  2.58039  -1.940003 H	1 RES1 0.0
28 H18	5.362043  0.872475  -2.308911 H	1 RES1 0.0
29 C9	-3.683638  1.937315  2.279242 C.3	1 RES1 0.0
30 C10	-2.462957  1.368562  1.574361 C.3	1 RES1 0.0
31 C11	-1.861072  2.512089  0.774061 C.3	1 RES1 0.0
32 C12	-2.908117  3.072866  -0.174426 C.3	1 RES1 0.0
33 N2	-0.713377  2.017596  -0.0 N.3	1 RES1 0.0
34 C13	-0.13158  3.123599  -0.774061 C.3	1 RES1 0.0
35 C14	0.33151  4.217293  0.174506 C.3	1 RES1 0.0
36 C15	-1.179158  3.684868  -1.721668 C.3	1 RES1 0.0
37 C16	-0.577579  4.828491  -2.522062 C.3	1 RES1 0.0
38 H19	-3.403599  2.812887  2.826829 H	1 RES1 0.0
39 H20	-4.079114  1.20641  2.953243 H	1 RES1 0.0
40 H21	-4.427498  2.19302  1.553854 H	1 RES1 0.0
41 H22	-1.719099  1.112855  2.29975 H	1 RES1 0.0
42 H23	-2.742997  0.49299  1.026774 H	1 RES1 0.0
43 H24	-1.53571  3.282254  1.441808 H	1 RES1 0.0
44 H25	-3.401496  4.020765  -0.228887 H	1 RES1 0.0
45 H26	-2.40282  2.880218  -1.097714 H	1 RES1 0.0
46 H27	-3.630912  2.304275  0.003716 H	1 RES1 0.0
47 H28	0.703352  2.763643  -1.33817 H	1 RES1 0.0
48 H29	-0.485929  4.521584  0.794263 H	1 RES1 0.0
49 H30	1.124964  3.844794  0.788163 H	1 RES1 0.0
50 H31	0.681487  5.055404  -0.391168 H	1 RES1 0.0
51 H32	-1.505147  2.914965  -2.389412 H	1 RES1 0.0
52 H33	-2.014088  4.044823  -1.157555 H	1 RES1 0.0
53 H34	0.257351  4.468536  -3.086176 H	1 RES1 0.0
54 H35	-1.315019  5.223595  -3.189126 H	1 RES1 0.0
55 H36	-0.25159  5.598393  -1.854317 H	1 RES1 0.0
56 C17	-1.678626  -4.409006  0.510106 C.3	1 RES1 0.0
57 C18	-1.097197  -3.008871  0.400734 C.3	1 RES1 0.0
58 C19	-1.189611  -2.398853  1.789884 C.3	1 RES1 0.0
59 C20	-2.63496  -2.425089  2.259647 C.3	1 RES1 0.0
60 N3	-0.713375  -1.008786  1.747297 N.3	1 RES1 0.0
61 C21	-0.803038  -0.418958  3.090786 C.3	1 RES1 0.0
62 C22	0.058193  -1.219431  4.054074 C.3	1 RES1 0.0
63 C23	-2.248313  -0.446319  3.560716 C.3	1 RES1 0.0
64 C24	-2.341033  0.163571  4.949902 C.3	1 RES1 0.0
65 H37	-1.18935  -4.937572  1.301388 H	1 RES1 0.0
66 H38	-1.52962  -4.930151  -0.412447 H	1 RES1 0.0
67 H39	-2.726203  -4.344917  0.718369 H	1 RES1 0.0
68 H40	-0.049619  -3.072961  0.192469 H	1 RES1 0.0
69 H41	-1.586473  -2.480305  -0.390548 H	1 RES1 0.0
70 H42	-0.583864  -2.962781  2.468085 H	1 RES1 0.0
71 H43	-3.128437  -2.945931  3.053438 H	1 RES1 0.0
72 H44	-2.780153  -1.371807  2.379721 H	1 RES1 0.0
73 H45	-3.042943  -2.736631  1.320823 H	1 RES1 0.0
74 H46	-0.457168  0.593126  3.059792 H	1 RES1 0.0
75 H47	-0.236004  -2.24779  4.025351 H	1 RES1 0.0
76 H48	1.085924  -1.134371  3.768708 H	1 RES1 0.0
77 H49	-0.069081  -0.839622  5.046267 H	1 RES1 0.0
78 H50	-2.854573  0.117175  2.882613 H	1 RES1 0.0
79 H51	-2.594179  -1.458404  3.591708 H	1 RES1 0.0
80 H52	-1.995167  1.175656  4.918909 H	1 RES1 0.0
81 H53	-3.35843  0.144308  5.280707 H	1 RES1 0.0
82 H54	-1.734771  -0.399924  5.628003 H	1 RES1 0.0
83 C25	-4.436907  -1.006531  -1.34836 C.3	1 RES1 0.0
84 C26	-3.004317  -0.656344  -0.980316 C.3	1 RES1 0.0
85 C27	-2.127283  -1.242189  -2.074847 C.3	1 RES1 0.0
86 C28	-2.382312  -2.736743  -2.182866 C.3	1 RES1 0.0
87 N4	-0.713375  -1.008786  -1.747297 N.3	1 RES1 0.0
88 C29	0.134633  -1.575622  -2.805823 C.3	1 RES1 0.0
89 C30	-0.194576  -0.907628  -4.130892 C.3	1 RES1 0.0
90 C31	-0.121401  -3.069968  -2.914338 C.3	1 RES1 0.0
91 C32	0.755449  -3.65609  -4.008867 C.3	1 RES1 0.0
92 H55	-4.636854  -0.684908  -2.349099 H	1 RES1 0.0
93 H56	-5.108278  -0.515702  -0.675123 H	1 RES1 0.0
94 H57	-4.574059  -2.065497  -1.279941 H	1 RES1 0.0
95 H58	-2.867167  0.402622  -1.048734 H	1 RES1 0.0
96 H59	-2.804372  -0.977968  0.020423 H	1 RES1 0.0
97 H60	-2.35954  -0.772398  -3.00772 H	1 RES1 0.0
98 H61	-2.805223  -3.344631  -2.955212 H	1 RES1 0.0
99 H62	-1.394408  -3.081191  -1.958587 H	1 RES1 0.0
100 H63	-2.990473  -2.801356  -1.304877 H	1 RES1 0.0
101 H64	1.163874  -1.406508  -2.56715 H	1 RES1 0.0
102 H65	-1.240926  -1.00817  -4.330751 H	1 RES1 0.0
103 H66	0.060753  0.130227  -4.080262 H	1 RES1 0.0
104 H67	0.364698  -1.37471  -4.91444 H	1 RES1 0.0
105 H68	0.110348  -3.540201  -1.98156 H	1 RES1 0.0
106 H69	-1.150642  -3.239076  -3.153011 H	1 RES1 0.0
107 H70	1.78469  -3.486982  -3.770194 H	1 RES1 0.0
108 H71	0.575212  -4.708031  -4.085256 H	1 RES1 0.0
109 H72	0.523699  -3.185857  -4.941644 H	1 RES1 0.0
@<TRIPOS>BOND
1 1 6 1
1 1 33 1
1 1 60 1
1 1 87 1
1 2 3 1
1 2 11 1
1 2 12 1
1 2 13 1
1 3 4 1
1 3 14 1
1 3 15 1
1 4 5 1
1 4 6 1
1 4 16 1
1 5 17 1
1 5 18 1
1 5 19 1
1 6 7 1
1 7 8 1
1 7 9 1
1 7 20 1
1 8 21 1
1 8 22 1
1 8 23 1
1 9 10 1
1 9 24 1
1 9 25 1
1 10 26 1
1 10 27 1
1 10 28 1
1 29 30 1
1 29 38 1
1 29 39 1
1 29 40 1
1 30 31 1
1 30 41 1
1 30 42 1
1 31 32 1
1 31 33 1
1 31 43 1
1 32 44 1
1 32 45 1
1 32 46 1
1 33 34 1
1 34 35 1
1 34 36 1
1 34 47 1
1 35 48 1
1 35 49 1
1 35 50 1
1 36 37 1
1 36 51 1
1 36 52 1
1 37 53 1
1 37 54 1
1 37 55 1
1 56 57 1
1 56 65 1
1 56 66 1
1 56 67 1
1 57 58 1
1 57 68 1
1 57 69 1
1 58 59 1
1 58 60 1
1 58 70 1
1 59 71 1
1 59 72 1
1 59 73 1
1 60 61 1
1 61 62 1
1 61 63 1
1 61 74 1
1 62 75 1
1 62 76 1
1 62 77 1
1 63 64 1
1 63 78 1
1 63 79 1
1 64 80 1
1 64 81 1
1 64 82 1
1 83 84 1
1 83 92 1
1 83 93 1
1 83 94 1
1 84 85 1
1 84 95 1
1 84 96 1
1 85 86 1
1 85 87 1
1 85 97 1
1 86 98 1
1 86 99 1
1 86 100 1
1 87 88 1
1 88 89 1
1 88 90 1
1 88 101 1
1 89 102 1
1 89 103 1
1 89 104 1
1 90 91 1
1 90 105 1
1 90 106 1
1 91 107 1
1 91 108 1
1 91 109 1
@<TRIPOS>SUBSTRUCTURE
1 RES1 109

