@<TRIPOS>MOLECULE
/Users/abdulahmed/Documents/GitHub/HER-metal-complex-ligands/Runs//ni_oct_2_smi1_6_s_1/ni_oct_2_smi1_6_s_1_conf_1
103	108	1
SMALL
PartialCharges
****
Generated from molSimplify

@<TRIPOS>ATOM
1 Ni1	0.0  0.0  0.0 Ni	1 RES1 0.0
2 C1	-0.856548  4.019707  -1.440752 C.3	1 RES1 0.0
3 C2	0.341186  3.131158  -1.109456 C.3	1 RES1 0.0
4 C3	-0.0  2.14  0.0 C.3	1 RES1 0.0
5 N1	-0.475948  2.836095  1.196751 N.3	1 RES1 0.0
6 C4	-1.689829  3.600741  0.901052 C.3	1 RES1 0.0
7 C5	-1.425462  4.651922  -0.174978 C.3	1 RES1 0.0
8 H1	-0.56158  4.797082  -2.15243 H	1 RES1 0.0
9 H2	-1.632306  3.414383  -1.926068 H	1 RES1 0.0
10 H3	0.660873  2.589551  -2.005036 H	1 RES1 0.0
11 H4	1.184604  3.758897  -0.794619 H	1 RES1 0.0
12 H5	-0.758523  1.422322  -0.345202 H	1 RES1 0.0
13 H6	0.893285  1.563173  0.257908 H	1 RES1 0.0
14 H7	-0.672313  2.159022  1.929879 H	1 RES1 0.0
15 H8	-2.033697  4.095775  1.817581 H	1 RES1 0.0
16 H9	-2.491878  2.925128  0.584471 H	1 RES1 0.0
17 H10	-0.719214  5.399549  0.208271 H	1 RES1 0.0
18 H11	-2.354487  5.182443  -0.411021 H	1 RES1 0.0
19 C6	4.019707  0.384682  1.631398 C.3	1 RES1 0.0
20 C7	3.131158  1.016121  0.561068 C.3	1 RES1 0.0
21 C8	2.14  0.0  0.0 C.3	1 RES1 0.0
22 N2	2.836095  -1.173701  -0.530249 N.3	1 RES1 0.0
23 C9	3.600741  -1.841485  0.525691 C.3	1 RES1 0.0
24 C10	4.651922  -0.903842  1.116078 C.3	1 RES1 0.0
25 H12	4.797082  1.091236  1.938435 H	1 RES1 0.0
26 H13	3.414383  0.163777  2.519392 H	1 RES1 0.0
27 H14	2.589551  1.868207  0.983221 H	1 RES1 0.0
28 H15	3.758897  1.404121  -0.251294 H	1 RES1 0.0
29 H16	1.422322  -0.305838  0.775232 H	1 RES1 0.0
30 H17	1.563173  0.463418  -0.806051 H	1 RES1 0.0
31 H18	2.159022  -1.824228  -0.921211 H	1 RES1 0.0
32 H19	4.095775  -2.725517  0.105266 H	1 RES1 0.0
33 H20	2.925128  -2.198515  1.310571 H	1 RES1 0.0
34 H21	5.399549  -0.662036  0.34979 H	1 RES1 0.0
35 H22	5.182443  -1.408157  1.931228 H	1 RES1 0.0
36 C11	-1.220492  -4.019707  1.148843 C.3	1 RES1 0.0
37 C12	0.022161  -3.131158  1.160521 C.3	1 RES1 0.0
38 C13	0.0  -2.14  0.0 C.3	1 RES1 0.0
39 N3	-0.127642  -2.836095  -1.28158 N.3	1 RES1 0.0
40 C14	-1.376004  -3.600741  -1.331927 C.3	1 RES1 0.0
41 C15	-1.418473  -4.651922  -0.224711 C.3	1 RES1 0.0
42 H23	-1.133116  -4.797082  1.914256 H	1 RES1 0.0
43 H24	-2.099969  -3.414383  1.401531 H	1 RES1 0.0
44 H25	0.082609  -2.589551  2.109526 H	1 RES1 0.0
45 H26	0.919687  -3.758897  1.090358 H	1 RES1 0.0
46 H27	-0.82429  -1.422322  0.122753 H	1 RES1 0.0
47 H28	0.92977  -1.563173  -0.001694 H	1 RES1 0.0
48 H29	-0.114322  -2.159022  -2.040434 H	1 RES1 0.0
49 H30	-1.453922  -4.095775  -2.307734 H	1 RES1 0.0
50 H31	-2.234245  -2.925128  -1.248684 H	1 RES1 0.0
51 H32	-0.633945  -5.399549  -0.398445 H	1 RES1 0.0
52 H33	-2.376571  -5.182443  -0.253886 H	1 RES1 0.0
53 C16	-4.019707  -0.662127  1.539815 C.3	1 RES1 0.0
54 C17	-3.131158  -1.098113  0.376097 C.3	1 RES1 0.0
55 C18	-2.14  0.0  0.0 C.3	1 RES1 0.0
56 N4	-2.836095  1.247947  -0.318382 N.3	1 RES1 0.0
57 C19	-3.600741  1.722223  0.837475 C.3	1 RES1 0.0
58 C20	-4.651922  0.696306  1.256073 C.3	1 RES1 0.0
59 H34	-4.797082  -1.411264  1.719495 H	1 RES1 0.0
60 H35	-3.414383  -0.598776  2.452677 H	1 RES1 0.0
61 H36	-2.589551  -2.01056  0.643873 H	1 RES1 0.0
62 H37	-3.758897  -1.339153  -0.491299 H	1 RES1 0.0
63 H38	-1.422322  0.166574  0.816563 H	1 RES1 0.0
64 H39	-1.563173  -0.316408  -0.874277 H	1 RES1 0.0
65 H40	-2.159022  1.956481  -0.590442 H	1 RES1 0.0
66 H41	-4.095775  2.665831  0.576948 H	1 RES1 0.0
67 H42	-2.925128  1.937536  1.672428 H	1 RES1 0.0
68 H43	-5.399549  0.591238  0.459437 H	1 RES1 0.0
69 H44	-5.182443  1.05141  2.146413 H	1 RES1 0.0
70 C21	0.662127  1.539815  4.019707 C.3	1 RES1 0.0
71 C22	1.098113  0.376097  3.131158 C.3	1 RES1 0.0
72 C23	0.0  0.0  2.14 C.3	1 RES1 0.0
73 N5	-1.247947  -0.318382  2.836095 N.3	1 RES1 0.0
74 C24	-1.722223  0.837475  3.600741 C.3	1 RES1 0.0
75 C25	-0.696306  1.256073  4.651922 C.3	1 RES1 0.0
76 H45	1.411264  1.719495  4.797082 H	1 RES1 0.0
77 H46	0.598776  2.452677  3.414383 H	1 RES1 0.0
78 H47	2.01056  0.643873  2.589551 H	1 RES1 0.0
79 H48	1.339153  -0.491299  3.758897 H	1 RES1 0.0
80 H49	-0.166574  0.816563  1.422322 H	1 RES1 0.0
81 H50	0.316408  -0.874277  1.563173 H	1 RES1 0.0
82 H51	-1.956481  -0.590442  2.159022 H	1 RES1 0.0
83 H52	-2.665831  0.576948  4.095775 H	1 RES1 0.0
84 H53	-1.937536  1.672428  2.925128 H	1 RES1 0.0
85 H54	-0.591238  0.459437  5.399549 H	1 RES1 0.0
86 H55	-1.05141  2.146413  5.182443 H	1 RES1 0.0
87 C26	0.616218  -1.558755  -4.019707 C.3	1 RES1 0.0
88 C27	1.086489  -0.408464  -3.131158 C.3	1 RES1 0.0
89 C28	0.0  0.0  -2.14 C.3	1 RES1 0.0
90 N6	-1.237967  0.355214  -2.836095 N.3	1 RES1 0.0
91 C29	-1.746278  -0.786086  -3.600741 C.3	1 RES1 0.0
92 C30	-0.733212  -1.234893  -4.651922 C.3	1 RES1 0.0
93 H56	1.359703  -1.76055  -4.797082 H	1 RES1 0.0
94 H57	0.525851  -2.46934  -3.414383 H	1 RES1 0.0
95 H58	1.990602  -0.703155  -2.589551 H	1 RES1 0.0
96 H59	1.35312  0.45141  -3.758897 H	1 RES1 0.0
97 H60	-0.190692  -0.811269  -1.422322 H	1 RES1 0.0
98 H61	0.34217  0.86452  -1.563173 H	1 RES1 0.0
99 H62	-1.93813  0.648145  -2.159022 H	1 RES1 0.0
100 H63	-2.681753  -0.497718  -4.095775 H	1 RES1 0.0
101 H64	-1.986233  -1.614294  -2.925128 H	1 RES1 0.0
102 H65	-0.60459  -0.44172  -5.399549 H	1 RES1 0.0
103 H66	-1.114537  -2.114322  -5.182443 H	1 RES1 0.0
@<TRIPOS>BOND
1 1 4 1
1 1 21 1
1 1 38 1
1 1 55 1
1 1 72 1
1 1 89 1
1 2 3 1
1 2 7 1
1 2 8 1
1 2 9 1
1 3 4 1
1 3 10 1
1 3 11 1
1 4 5 1
1 4 12 1
1 4 13 1
1 5 6 1
1 5 14 1
1 6 7 1
1 6 15 1
1 6 16 1
1 7 17 1
1 7 18 1
1 19 20 1
1 19 24 1
1 19 25 1
1 19 26 1
1 20 21 1
1 20 27 1
1 20 28 1
1 21 22 1
1 21 29 1
1 21 30 1
1 22 23 1
1 22 31 1
1 23 24 1
1 23 32 1
1 23 33 1
1 24 34 1
1 24 35 1
1 36 37 1
1 36 41 1
1 36 42 1
1 36 43 1
1 37 38 1
1 37 44 1
1 37 45 1
1 38 39 1
1 38 46 1
1 38 47 1
1 39 40 1
1 39 48 1
1 40 41 1
1 40 49 1
1 40 50 1
1 41 51 1
1 41 52 1
1 53 54 1
1 53 58 1
1 53 59 1
1 53 60 1
1 54 55 1
1 54 61 1
1 54 62 1
1 55 56 1
1 55 63 1
1 55 64 1
1 56 57 1
1 56 65 1
1 57 58 1
1 57 66 1
1 57 67 1
1 58 68 1
1 58 69 1
1 70 71 1
1 70 75 1
1 70 76 1
1 70 77 1
1 71 72 1
1 71 78 1
1 71 79 1
1 72 73 1
1 72 80 1
1 72 81 1
1 73 74 1
1 73 82 1
1 74 75 1
1 74 83 1
1 74 84 1
1 75 85 1
1 75 86 1
1 87 88 1
1 87 92 1
1 87 93 1
1 87 94 1
1 88 89 1
1 88 95 1
1 88 96 1
1 89 90 1
1 89 97 1
1 89 98 1
1 90 91 1
1 90 99 1
1 91 92 1
1 91 100 1
1 91 101 1
1 92 102 1
1 92 103 1
@<TRIPOS>SUBSTRUCTURE
1 RES1 103

