@<TRIPOS>MOLECULE
/Users/abdulahmed/Documents/GitHub/HER-metal-complex-ligands/Runs//3_methoxypropylamine/3_methoxypropylamine
97	102	1
SMALL
PartialCharges
****
Generated from molSimplify

@<TRIPOS>ATOM
1 Ni1	0.0  0.0  0.0 Ni	1 RES1 0.0
2 C1	1.050472  4.652659  -0.725533 C.3	1 RES1 0.0
3 O1	0.785218  5.446966  0.421252 O.3	1 RES1 0.0
4 C2	0.146098  4.652657  1.409686 C.3	1 RES1 0.0
5 C3	-1.161202  4.109727  0.855977 C.3	1 RES1 0.0
6 C4	-0.877267  3.259482  -0.371567 C.3	1 RES1 0.0
7 N1	0.0  2.14  0.0 N.3	1 RES1 0.0
8 H1	1.532062  5.251186  -1.470339 H	1 RES1 0.0
9 H2	0.130202  4.270465  -1.115315 H	1 RES1 0.0
10 H3	1.689028  3.837798  -0.455073 H	1 RES1 0.0
11 H4	0.784655  3.837798  1.680146 H	1 RES1 0.0
12 H5	-0.053777  5.251184  2.273813 H	1 RES1 0.0
13 H6	-1.642792  3.5112  1.600784 H	1 RES1 0.0
14 H7	-1.799758  4.924587  0.585516 H	1 RES1 0.0
15 H8	-1.797538  2.877289  -0.761349 H	1 RES1 0.0
16 H9	-0.395678  3.858009  -1.116373 H	1 RES1 0.0
17 H10	0.877267  2.504334  0.371567 H	1 RES1 0.0
18 C5	4.652659  0.725533  -1.050472 C.3	1 RES1 0.0
19 O2	5.446966  -0.421252  -0.785218 O.3	1 RES1 0.0
20 C6	4.652657  -1.409686  -0.146098 C.3	1 RES1 0.0
21 C7	4.109727  -0.855977  1.161202 C.3	1 RES1 0.0
22 C8	3.259482  0.371567  0.877267 C.3	1 RES1 0.0
23 N2	2.14  0.0  0.0 N.3	1 RES1 0.0
24 H11	5.251186  1.470339  -1.532062 H	1 RES1 0.0
25 H12	4.270465  1.115315  -0.130202 H	1 RES1 0.0
26 H13	3.837798  0.455073  -1.689028 H	1 RES1 0.0
27 H14	3.837798  -1.680146  -0.784655 H	1 RES1 0.0
28 H15	5.251184  -2.273813  0.053777 H	1 RES1 0.0
29 H16	3.5112  -1.600784  1.642792 H	1 RES1 0.0
30 H17	4.924587  -0.585516  1.799758 H	1 RES1 0.0
31 H18	2.877289  0.761349  1.797538 H	1 RES1 0.0
32 H19	3.858009  1.116373  0.395678 H	1 RES1 0.0
33 H20	2.504334  -0.371567  -0.877267 H	1 RES1 0.0
34 C9	0.68843  -4.652659  -1.075153 C.3	1 RES1 0.0
35 O3	-0.448399  -5.446966  -0.770038 O.3	1 RES1 0.0
36 C10	-1.413926  -4.652657  -0.096812 C.3	1 RES1 0.0
37 C11	-0.81493  -4.109727  1.190368 C.3	1 RES1 0.0
38 C12	0.401957  -3.259482  0.863765 C.3	1 RES1 0.0
39 N3	0.0  -2.14  0.0 N.3	1 RES1 0.0
40 H21	1.415976  -5.251186  -1.582443 H	1 RES1 0.0
41 H22	1.110092  -4.270465  -0.169046 H	1 RES1 0.0
42 H23	0.39585  -3.837798  -1.703881 H	1 RES1 0.0
43 H24	-1.706507  -3.837798  -0.72554 H	1 RES1 0.0
44 H25	-2.270551  -5.251184  0.133099 H	1 RES1 0.0
45 H26	-1.542476  -3.5112  1.697658 H	1 RES1 0.0
46 H27	-0.522349  -4.924587  1.819096 H	1 RES1 0.0
47 H28	0.823619  -2.877289  1.769873 H	1 RES1 0.0
48 H29	1.129502  -3.858009  0.356476 H	1 RES1 0.0
49 H30	-0.401957  -2.504334  -0.863765 H	1 RES1 0.0
50 C13	-4.652659  -1.204421  -0.423392 C.3	1 RES1 0.0
51 O4	-5.446966  -0.120739  -0.88286 O.3	1 RES1 0.0
52 C14	-4.652657  1.054585  -0.946788 C.3	1 RES1 0.0
53 C15	-4.109727  1.375037  0.436302 C.3	1 RES1 0.0
54 C16	-3.259482  0.21504  0.928126 C.3	1 RES1 0.0
55 N4	-2.14  0.0  0.0 N.3	1 RES1 0.0
56 H31	-5.251186  -2.090053  -0.375221 H	1 RES1 0.0
57 H32	-4.270465  -0.97884  0.550231 H	1 RES1 0.0
58 H33	-3.837798  -1.360948  -1.098967 H	1 RES1 0.0
59 H34	-3.837798  0.898059  -1.622364 H	1 RES1 0.0
60 H35	-5.251184  1.871162  -1.293007 H	1 RES1 0.0
61 H36	-3.5112  2.26067  0.38813 H	1 RES1 0.0
62 H37	-4.924587  1.531564  1.111877 H	1 RES1 0.0
63 H38	-2.877289  0.440622  1.901749 H	1 RES1 0.0
64 H39	-3.858009  -0.670592  0.976298 H	1 RES1 0.0
65 H40	-2.504334  -0.21504  -0.928126 H	1 RES1 0.0
66 C17	-0.761752  1.024511  4.652659 C.3	1 RES1 0.0
67 O5	0.393592  0.799441  5.446966 O.3	1 RES1 0.0
68 C18	1.403728  0.195206  4.652657 C.3	1 RES1 0.0
69 C19	0.895981  -1.130621  4.109727 C.3	1 RES1 0.0
70 C20	-0.340725  -0.8897  3.259482 C.3	1 RES1 0.0
71 N5	0.0  0.0  2.14 N.3	1 RES1 0.0
72 H41	-1.522912  1.479815  5.251186 H	1 RES1 0.0
73 H42	-1.11918  0.091199  4.270465 H	1 RES1 0.0
74 H43	-0.513742  1.672117  3.837798 H	1 RES1 0.0
75 H44	1.651739  0.842813  3.837798 H	1 RES1 0.0
76 H45	2.274304  0.025611  5.251184 H	1 RES1 0.0
77 H46	1.657141  -1.585925  3.5112 H	1 RES1 0.0
78 H47	0.64797  -1.778227  4.924587 H	1 RES1 0.0
79 H48	-0.698152  -1.823014  2.877289 H	1 RES1 0.0
80 H49	-1.101884  -0.434397  3.858009 H	1 RES1 0.0
81 H50	0.340725  0.8897  2.504334 H	1 RES1 0.0
82 C21	1.276652  -0.007009  -4.652659 C.3	1 RES1 0.0
83 O6	0.411042  0.79061  -5.446966 O.3	1 RES1 0.0
84 C22	-0.674079  1.246666  -4.652657 C.3	1 RES1 0.0
85 C23	-1.441648  0.05232  -4.109727 C.3	1 RES1 0.0
86 C24	-0.51508  -0.801469  -3.259482 C.3	1 RES1 0.0
87 N6	0.0  -0.0  -2.14 N.3	1 RES1 0.0
88 H51	2.094314  -0.350658  -5.251186 H	1 RES1 0.0
89 H52	0.736324  -0.847767  -4.270465 H	1 RES1 0.0
90 H53	1.651575  0.576373  -3.837798 H	1 RES1 0.0
91 H54	-0.299155  1.830049  -3.837798 H	1 RES1 0.0
92 H55	-1.326334  1.847689  -5.251184 H	1 RES1 0.0
93 H56	-2.25931  0.395969  -3.5112 H	1 RES1 0.0
94 H57	-1.816571  -0.531063  -4.924587 H	1 RES1 0.0
95 H58	-1.055409  -1.642227  -2.877289 H	1 RES1 0.0
96 H59	0.302582  -1.145118  -3.858009 H	1 RES1 0.0
97 H60	0.51508  0.801469  -2.504334 H	1 RES1 0.0
@<TRIPOS>BOND
1 1 7 1
1 1 23 1
1 1 39 1
1 1 55 1
1 1 71 1
1 1 87 1
1 2 3 1
1 2 8 1
1 2 9 1
1 2 10 1
1 3 4 1
1 4 5 1
1 4 11 1
1 4 12 1
1 5 6 1
1 5 13 1
1 5 14 1
1 6 7 1
1 6 15 1
1 6 16 1
1 7 17 1
1 9 16 1
1 18 19 1
1 18 24 1
1 18 25 1
1 18 26 1
1 19 20 1
1 20 21 1
1 20 27 1
1 20 28 1
1 21 22 1
1 21 29 1
1 21 30 1
1 22 23 1
1 22 31 1
1 22 32 1
1 23 33 1
1 25 32 1
1 34 35 1
1 34 40 1
1 34 41 1
1 34 42 1
1 35 36 1
1 36 37 1
1 36 43 1
1 36 44 1
1 37 38 1
1 37 45 1
1 37 46 1
1 38 39 1
1 38 47 1
1 38 48 1
1 39 49 1
1 41 48 1
1 50 51 1
1 50 56 1
1 50 57 1
1 50 58 1
1 51 52 1
1 52 53 1
1 52 59 1
1 52 60 1
1 53 54 1
1 53 61 1
1 53 62 1
1 54 55 1
1 54 63 1
1 54 64 1
1 55 65 1
1 57 64 1
1 66 67 1
1 66 72 1
1 66 73 1
1 66 74 1
1 67 68 1
1 68 69 1
1 68 75 1
1 68 76 1
1 69 70 1
1 69 77 1
1 69 78 1
1 70 71 1
1 70 79 1
1 70 80 1
1 71 81 1
1 73 80 1
1 82 83 1
1 82 88 1
1 82 89 1
1 82 90 1
1 83 84 1
1 84 85 1
1 84 91 1
1 84 92 1
1 85 86 1
1 85 93 1
1 85 94 1
1 86 87 1
1 86 95 1
1 86 96 1
1 87 97 1
1 89 96 1
@<TRIPOS>SUBSTRUCTURE
1 RES1 97

