@<TRIPOS>MOLECULE
/home/jovyan/shared-scratch-kabdelma-pvc/kabdelma/HER-metal-complex-ligands/Runs//ni_oct_2_tetramethyldiaminomethane_3_s_1/badjob_ni_oct_2_tetramethyldiaminomethane_3_s_1_conf_1
64	73	1
SMALL
PartialCharges
****
Generated from molSimplify

@<TRIPOS>ATOM
1 Ni1	0.0  0.0  0.0 Ni	1 RES1 0.0
2 C1	-0.499794  2.501558  1.333663 C.3	1 RES1 0.0
3 N1	0.0  2.176372  -0.0 N.3	1 RES1 0.0
4 C2	-0.381489  3.228311  -0.941265 C.3	1 RES1 0.0
5 C3	1.441129  1.956153  -0.012417 C.3	1 RES1 0.0
6 N2	1.661295  0.515077  -0.0 N.4	1 RES1 0.0
7 C4	2.676522  0.125971  -0.977741 C.3	1 RES1 0.0
8 C5	2.037361  0.024661  1.323926 C.3	1 RES1 0.0
9 H1	-1.587423  2.638033  1.312933 H	1 RES1 0.0
10 H2	-0.050643  3.419468  1.730467 H	1 RES1 0.0
11 H3	-0.313035  1.691998  2.043329 H	1 RES1 0.0
12 H4	-1.469266  3.361059  -0.954907 H	1 RES1 0.0
13 H5	0.08069  4.191104  -0.694263 H	1 RES1 0.0
14 H6	-0.092974  2.956141  -1.963086 H	1 RES1 0.0
15 H7	1.964102  2.481003  0.799175 H	1 RES1 0.0
16 H8	1.866808  2.381665  -0.932234 H	1 RES1 0.0
17 H9	3.649062  0.586544  -0.768402 H	1 RES1 0.0
18 H10	2.806089  -0.96219  -0.990227 H	1 RES1 0.0
19 H11	2.367957  0.410407  -1.990253 H	1 RES1 0.0
20 H12	2.973962  0.470368  1.678648 H	1 RES1 0.0
21 H13	1.259845  0.225314  2.065074 H	1 RES1 0.0
22 H14	2.164329  -1.064156  1.307575 H	1 RES1 0.0
23 C6	1.333663  -2.501558  -0.499794 C.3	1 RES1 0.0
24 N3	-0.0  -2.176372  0.0 N.4	1 RES1 0.0
25 C7	-0.941265  -3.228311  -0.381489 C.3	1 RES1 0.0
26 C8	-0.012417  -1.956153  1.441129 C.3	1 RES1 0.0
27 N4	-0.0  -0.515077  1.661295 N.4	1 RES1 0.0
28 C9	-0.977741  -0.125971  2.676522 C.3	1 RES1 0.0
29 C10	1.323926  -0.024661  2.037361 C.3	1 RES1 0.0
30 H15	1.312933  -2.638033  -1.587423 H	1 RES1 0.0
31 H16	1.730467  -3.419468  -0.050643 H	1 RES1 0.0
32 H17	2.043329  -1.691998  -0.313035 H	1 RES1 0.0
33 H18	-0.954907  -3.361059  -1.469266 H	1 RES1 0.0
34 H19	-0.694263  -4.191104  0.08069 H	1 RES1 0.0
35 H20	-1.963086  -2.956141  -0.092974 H	1 RES1 0.0
36 H21	0.799175  -2.481003  1.964102 H	1 RES1 0.0
37 H22	-0.932234  -2.381665  1.866808 H	1 RES1 0.0
38 H23	-0.768402  -0.586544  3.649062 H	1 RES1 0.0
39 H24	-0.990227  0.96219  2.806089 H	1 RES1 0.0
40 H25	-1.990253  -0.410407  2.367957 H	1 RES1 0.0
41 H26	1.678648  -0.470368  2.973962 H	1 RES1 0.0
42 H27	2.065074  -0.225314  1.259845 H	1 RES1 0.0
43 H28	1.307575  1.064156  2.164329 H	1 RES1 0.0
44 C11	-2.501558  1.333663  0.499794 C.3	1 RES1 0.0
45 N5	-2.176372  0.0  0.0 N.4	1 RES1 0.0
46 C12	-3.228311  -0.941265  0.381489 C.3	1 RES1 0.0
47 C13	-1.956153  -0.012417  -1.441129 C.3	1 RES1 0.0
48 N6	-0.515077  0.0  -1.661295 N.4	1 RES1 0.0
49 C14	-0.125971  -0.977741  -2.676522 C.3	1 RES1 0.0
50 C15	-0.024661  1.323926  -2.037361 C.3	1 RES1 0.0
51 H29	-2.638033  1.312933  1.587423 H	1 RES1 0.0
52 H30	-3.419468  1.730467  0.050643 H	1 RES1 0.0
53 H31	-1.691998  2.043329  0.313035 H	1 RES1 0.0
54 H32	-3.361059  -0.954907  1.469266 H	1 RES1 0.0
55 H33	-4.191104  -0.694263  -0.08069 H	1 RES1 0.0
56 H34	-2.956141  -1.963086  0.092974 H	1 RES1 0.0
57 H35	-2.481003  0.799175  -1.964102 H	1 RES1 0.0
58 H36	-2.381665  -0.932234  -1.866808 H	1 RES1 0.0
59 H37	-0.586544  -0.768402  -3.649062 H	1 RES1 0.0
60 H38	0.96219  -0.990227  -2.806089 H	1 RES1 0.0
61 H39	-0.410407  -1.990253  -2.367957 H	1 RES1 0.0
62 H40	-0.470368  1.678648  -2.973962 H	1 RES1 0.0
63 H41	-0.225314  2.065074  -1.259845 H	1 RES1 0.0
64 H42	1.064156  1.307575  -2.164329 H	1 RES1 0.0
@<TRIPOS>BOND
1 1 3 1
1 1 6 1
1 1 24 1
1 1 27 1
1 1 45 1
1 1 48 1
1 2 3 1
1 2 9 1
1 2 10 1
1 2 11 1
1 3 4 1
1 3 5 1
1 3 63 1
1 4 12 1
1 4 13 1
1 4 14 1
1 4 63 1
1 5 6 1
1 5 15 1
1 5 16 1
1 6 7 1
1 6 8 1
1 7 17 1
1 7 18 1
1 7 19 1
1 8 20 1
1 8 21 1
1 8 22 1
1 8 29 1
1 8 42 1
1 21 29 1
1 21 43 1
1 22 42 1
1 23 24 1
1 23 30 1
1 23 31 1
1 23 32 1
1 24 25 1
1 24 26 1
1 25 33 1
1 25 34 1
1 25 35 1
1 26 27 1
1 26 36 1
1 26 37 1
1 27 28 1
1 27 29 1
1 28 38 1
1 28 39 1
1 28 40 1
1 29 41 1
1 29 42 1
1 29 43 1
1 44 45 1
1 44 51 1
1 44 52 1
1 44 53 1
1 45 46 1
1 45 47 1
1 46 54 1
1 46 55 1
1 46 56 1
1 47 48 1
1 47 57 1
1 47 58 1
1 48 49 1
1 48 50 1
1 49 59 1
1 49 60 1
1 49 61 1
1 50 62 1
1 50 63 1
1 50 64 1
@<TRIPOS>SUBSTRUCTURE
1 RES1 64

