@<TRIPOS>MOLECULE
/Users/abdulahmed/Documents/GitHub/HER-metal-complex-ligands/Runs//diphenylamine/diphenylamine
93	100	1
SMALL
PartialCharges
****
Generated from molSimplify

@<TRIPOS>ATOM
1 Ni1	0.0  0.0  0.0 Ni	1 RES1 0.0
2 N1	2.14  0.0  0.0 N.pl3	1 RES1 0.0
3 C1	2.875  1.270635  0.07849 C.ar	1 RES1 0.0
4 C2	2.702963  2.10166  1.173189 C.ar	1 RES1 0.0
5 C3	3.231151  3.40208  0.994368 C.ar	1 RES1 0.0
6 C4	4.113369  3.731339  0.068465 C.ar	1 RES1 0.0
7 C5	4.287495  2.837022  -0.951009 C.ar	1 RES1 0.0
8 C6	3.698919  1.596117  -0.910681 C.ar	1 RES1 0.0
9 C7	2.875  -1.270635  -0.07849 C.ar	1 RES1 0.0
10 C8	2.169416  -2.460306  -0.151979 C.ar	1 RES1 0.0
11 C9	2.961518  -3.611334  0.071085 C.ar	1 RES1 0.0
12 C10	4.279787  -3.639078  -0.002497 C.ar	1 RES1 0.0
13 C11	4.914926  -2.428301  0.005715 C.ar	1 RES1 0.0
14 C12	4.202792  -1.256201  -0.077599 C.ar	1 RES1 0.0
15 H1	2.214918  1.788624  2.072478 H	1 RES1 0.0
16 H2	2.892203  4.172265  1.655298 H	1 RES1 0.0
17 H3	4.662373  4.648646  0.113657 H	1 RES1 0.0
18 H4	4.890793  3.107389  -1.792337 H	1 RES1 0.0
19 H5	3.906366  0.885599  -1.683358 H	1 RES1 0.0
20 H6	1.120516  -2.504851  -0.358681 H	1 RES1 0.0
21 H7	2.457356  -4.522661  0.316452 H	1 RES1 0.0
22 H8	4.821695  -4.559571  -0.065172 H	1 RES1 0.0
23 H9	5.981894  -2.393034  0.078064 H	1 RES1 0.0
24 H10	4.722874  -0.323345  -0.142348 H	1 RES1 0.0
25 N2	-0.713377  2.017596  -0.0 N.pl3	1 RES1 0.0
26 C13	-1.115777  2.654907  -1.262065 C.ar	1 RES1 0.0
27 C14	-2.142652  2.109353  -2.014703 C.ar	1 RES1 0.0
28 C15	-2.236067  2.636556  -3.324429 C.ar	1 RES1 0.0
29 C16	-1.680996  3.768558  -3.717474 C.ar	1 RES1 0.0
30 C17	-0.721404  4.292537  -2.89645 C.ar	1 RES1 0.0
31 C18	-0.481519  3.753072  -1.655755 C.ar	1 RES1 0.0
32 C19	-0.801006  2.766204  1.262065 C.ar	1 RES1 0.0
33 C20	-0.41844  2.15308  2.443711 C.ar	1 RES1 0.0
34 C21	-0.816584  2.852463  3.607496 C.ar	1 RES1 0.0
35 C22	-1.185004  4.120443  3.630039 C.ar	1 RES1 0.0
36 C23	-1.484083  4.688367  2.422785 C.ar	1 RES1 0.0
37 C24	-1.245418  4.017416  1.247728 C.ar	1 RES1 0.0
38 H11	-2.805159  1.357452  -1.639698 H	1 RES1 0.0
39 H12	-2.795338  2.079299  -4.046634 H	1 RES1 0.0
40 H13	-1.966839  4.249801  -4.629394 H	1 RES1 0.0
41 H14	-0.149023  5.134817  -3.224847 H	1 RES1 0.0
42 H15	0.222763  4.222122  -1.000866 H	1 RES1 0.0
43 H16	0.128548  1.233948  2.473729 H	1 RES1 0.0
44 H17	-0.819354  2.316734  4.533718 H	1 RES1 0.0
45 H18	-1.246168  4.673601  4.543918 H	1 RES1 0.0
46 H19	-1.910124  5.669428  2.39265 H	1 RES1 0.0
47 H20	-1.419243  4.50759  0.312627 H	1 RES1 0.0
48 N3	-0.713375  -1.008786  1.747297 N.pl3	1 RES1 0.0
49 C25	-0.018584  -2.207168  2.239277 C.ar	1 RES1 0.0
50 C26	1.311601  -2.128074  2.617319 C.ar	1 RES1 0.0
51 C27	1.933884  -3.386828  2.791549 C.ar	1 RES1 0.0
52 C28	1.286411  -4.526941  2.949465 C.ar	1 RES1 0.0
53 C29	-0.041363  -4.522478  2.623206 C.ar	1 RES1 0.0
54 C30	-0.689181  -3.350807  2.314315 C.ar	1 RES1 0.0
55 C31	-1.898196  -0.503355  2.455562 C.ar	1 RES1 0.0
56 C32	-2.542908  0.626878  1.980709 C.ar	1 RES1 0.0
57 C33	-3.472731  1.181723  2.891548 C.ar	1 RES1 0.0
58 C34	-3.978036  0.540658  3.92968 C.ar	1 RES1 0.0
59 C35	-3.33623  -0.605945  4.307618 C.ar	1 RES1 0.0
60 C36	-2.330143  -1.138947  3.538468 C.ar	1 RES1 0.0
61 H21	1.822254  -1.199344  2.764267 H	1 RES1 0.0
62 H22	3.003448  -3.417066  2.79564 H	1 RES1 0.0
63 H23	1.774634  -5.406858  3.313173 H	1 RES1 0.0
64 H24	-0.583769  -5.444688  2.608214 H	1 RES1 0.0
65 H25	-1.743596  -3.360004  2.132585 H	1 RES1 0.0
66 H26	-2.354859  1.04267  1.0129 H	1 RES1 0.0
67 H27	-3.788419  2.190899  2.727828 H	1 RES1 0.0
68 H28	-4.843179  0.899263  4.447204 H	1 RES1 0.0
69 H29	-3.621557  -1.095217  5.215418 H	1 RES1 0.0
70 H30	-1.890738  -2.074666  3.814607 H	1 RES1 0.0
71 N4	-0.713375  -1.008786  -1.747297 N.pl3	1 RES1 0.0
72 C37	-1.35985  -2.323291  -1.624631 C.ar	1 RES1 0.0
73 C38	-2.510616  -2.45899  -0.865757 C.ar	1 RES1 0.0
74 C39	-2.862703  -3.802101  -0.593474 C.ar	1 RES1 0.0
75 C40	-2.403292  -4.846383  -1.258629 C.ar	1 RES1 0.0
76 C41	-1.304941  -4.631874  -2.044161 C.ar	1 RES1 0.0
77 C42	-0.822685  -3.362365  -2.253136 C.ar	1 RES1 0.0
78 C43	-0.556929  -0.387232  -3.070209 C.ar	1 RES1 0.0
79 C44	0.054159  0.851723  -3.170836 C.ar	1 RES1 0.0
80 C45	-0.112809  1.472614  -4.43126 C.ar	1 RES1 0.0
81 C46	-0.478361  0.843648  -5.533435 C.ar	1 RES1 0.0
82 C47	-1.012297  -0.404746  -5.37258 C.ar	1 RES1 0.0
83 C48	-1.004113  -1.024143  -4.146132 C.ar	1 RES1 0.0
84 H31	-3.081526  -1.623897  -0.51707 H	1 RES1 0.0
85 H32	-3.548909  -3.984348  0.207031 H	1 RES1 0.0
86 H33	-2.865732  -5.808606  -1.186688 H	1 RES1 0.0
87 H34	-0.813885  -5.464611  -2.502762 H	1 RES1 0.0
88 H35	-0.006885  -3.209645  -2.928447 H	1 RES1 0.0
89 H36	0.602716  1.298727  -2.368233 H	1 RES1 0.0
90 H37	0.069809  2.524932  -4.495892 H	1 RES1 0.0
91 H38	-0.362908  1.28715  -6.500325 H	1 RES1 0.0
92 H39	-1.442708  -0.906579  -6.213894 H	1 RES1 0.0
93 H40	-1.361321  -2.028831  -4.057217 H	1 RES1 0.0
@<TRIPOS>BOND
1 1 2 1
1 1 25 1
1 1 48 1
1 1 71 1
1 2 3 1
1 2 9 1
1 3 4 2
1 3 8 1
1 4 5 1
1 4 15 1
1 5 6 2
1 5 16 1
1 6 7 1
1 6 17 1
1 7 8 2
1 7 18 1
1 8 19 1
1 9 10 2
1 9 14 1
1 10 11 1
1 10 20 1
1 11 12 2
1 11 21 1
1 12 13 1
1 12 22 1
1 13 14 2
1 13 23 1
1 14 24 1
1 25 26 1
1 25 32 1
1 26 27 2
1 26 31 1
1 27 28 1
1 27 38 1
1 28 29 2
1 28 39 1
1 29 30 1
1 29 40 1
1 30 31 2
1 30 41 1
1 31 42 1
1 32 33 2
1 32 37 1
1 33 34 1
1 33 43 1
1 34 35 2
1 34 44 1
1 35 36 1
1 35 45 1
1 36 37 2
1 36 46 1
1 37 47 1
1 48 49 1
1 48 55 1
1 49 50 2
1 49 54 1
1 50 51 1
1 50 61 1
1 51 52 2
1 51 62 1
1 52 53 1
1 52 63 1
1 53 54 2
1 53 64 1
1 54 65 1
1 55 56 2
1 55 60 1
1 56 57 1
1 56 66 1
1 57 58 2
1 57 67 1
1 58 59 1
1 58 68 1
1 59 60 2
1 59 69 1
1 60 70 1
1 71 72 1
1 71 78 1
1 72 73 2
1 72 77 1
1 73 74 1
1 73 84 1
1 74 75 2
1 74 85 1
1 75 76 1
1 75 86 1
1 76 77 2
1 76 87 1
1 77 88 1
1 78 79 2
1 78 83 1
1 79 80 1
1 79 89 1
1 80 81 2
1 80 90 1
1 81 82 1
1 81 91 1
1 82 83 2
1 82 92 1
1 83 93 1
@<TRIPOS>SUBSTRUCTURE
1 RES1 93

