@<TRIPOS>MOLECULE
/Users/abdulahmed/Documents/GitHub/HER-metal-complex-ligands/Runs//triphenylmethanethiol_hydride/triphenylmethanethiol_hydride
107	114	2
SMALL
PartialCharges
****
Generated from molSimplify

@<TRIPOS>ATOM
1 Ni1	0.0  0.0  0.0 Ni	1 RES1 0.0
2 S1	2.23  -0.0  0.0 S.3	1 RES1 0.0
3 C1	4.04  0.0  0.0 C.3	1 RES1 0.0
4 C2	4.54667  -0.592966  1.304637 C.ar	1 RES1 0.0
5 C3	4.562838  -1.971014  1.44352 C.ar	1 RES1 0.0
6 C4	4.632286  -2.411069  2.786494 C.ar	1 RES1 0.0
7 C5	5.009002  -1.657086  3.80316 C.ar	1 RES1 0.0
8 C6	5.038004  -0.308137  3.581925 C.ar	1 RES1 0.0
9 C7	4.849607  0.205432  2.321509 C.ar	1 RES1 0.0
10 C8	4.546668  -0.833367  -1.165842 C.ar	1 RES1 0.0
11 C9	4.042628  -2.121913  -1.230321 C.ar	1 RES1 0.0
12 C10	4.63318  -2.918661  -2.239525 C.ar	1 RES1 0.0
13 C11	5.319025  -2.443666  -3.26325 C.ar	1 RES1 0.0
14 C12	5.730179  -1.143095  -3.168827 C.ar	1 RES1 0.0
15 C13	5.300741  -0.339105  -2.140684 C.ar	1 RES1 0.0
16 C14	4.546661  1.426334  -0.138797 C.ar	1 RES1 0.0
17 C15	5.903286  1.659122  -0.293537 C.ar	1 RES1 0.0
18 C16	6.276217  3.012833  -0.119068 C.ar	1 RES1 0.0
19 C17	5.438471  4.032599  -0.166774 C.ar	1 RES1 0.0
20 C18	4.107828  3.731165  -0.077468 C.ar	1 RES1 0.0
21 C19	3.674898  2.427542  -0.109599 C.ar	1 RES1 0.0
22 H1	4.526139  -2.641904  0.610778 H	1 RES1 0.0
23 H2	4.360688  -3.425279  2.992679 H	1 RES1 0.0
24 H3	5.27711  -2.07914  4.749145 H	1 RES1 0.0
25 H4	5.209888  0.357154  4.402135 H	1 RES1 0.0
26 H5	4.947893  1.258269  2.157881 H	1 RES1 0.0
27 H6	3.276209  -2.482116  -0.576291 H	1 RES1 0.0
28 H7	4.515919  -3.979828  -2.168294 H	1 RES1 0.0
29 H8	5.541016  -3.044301  -4.120489 H	1 RES1 0.0
30 H9	6.395941  -0.745683  -3.906203 H	1 RES1 0.0
31 H10	5.576453  0.694651  -2.125415 H	1 RES1 0.0
32 H11	6.605543  0.885442  -0.524091 H	1 RES1 0.0
33 H12	7.308812  3.225045  0.064271 H	1 RES1 0.0
34 H13	5.782529  5.040525  -0.269775 H	1 RES1 0.0
35 H14	3.393359  4.521836  0.018827 H	1 RES1 0.0
36 H15	2.625773  2.217219  -0.111105 H	1 RES1 0.0
37 S2	-0.743378  2.102448  0.0 S.3	1 RES1 0.0
38 C20	-1.346748  3.80892  -0.0 C.3	1 RES1 0.0
39 C21	-2.835017  3.82011  0.308759 C.ar	1 RES1 0.0
40 C22	-3.238609  3.694558  1.627818 C.ar	1 RES1 0.0
41 C23	-4.586509  3.291631  1.779037 C.ar	1 RES1 0.0
42 C24	-5.501862  3.367554  0.830153 C.ar	1 RES1 0.0
43 C25	-5.043086  3.560529  -0.443321 C.ar	1 RES1 0.0
44 C26	-3.71726  3.829485  -0.683612 C.ar	1 RES1 0.0
45 C27	-0.603866  4.608993  1.057548 C.ar	1 RES1 0.0
46 C28	-0.62896  4.065501  2.331343 C.ar	1 RES1 0.0
47 C29	-0.051313  4.896124  3.320505 C.ar	1 RES1 0.0
48 C30	0.757245  5.909465  3.068734 C.ar	1 RES1 0.0
49 C31	0.788045  6.356454  1.776952 C.ar	1 RES1 0.0
50 C32	0.140645  5.672057  0.776768 C.ar	1 RES1 0.0
51 C33	-1.108057  4.430715  -1.366308 C.ar	1 RES1 0.0
52 C34	-1.371962  5.776333  -1.561836 C.ar	1 RES1 0.0
53 C35	-1.391821  6.164867  -2.92224 C.ar	1 RES1 0.0
54 C36	-0.868667  5.461273  -3.909803 C.ar	1 RES1 0.0
55 C37	-0.566537  4.156728  -3.633523 C.ar	1 RES1 0.0
56 C38	-0.648123  3.668685  -2.351707 C.ar	1 RES1 0.0
57 H16	-2.589929  3.884991  2.457184 H	1 RES1 0.0
58 H17	-4.884919  2.898046  2.728216 H	1 RES1 0.0
59 H18	-6.546355  3.282619  1.046303 H	1 RES1 0.0
60 H19	-5.726372  3.501246  -1.264604 H	1 RES1 0.0
61 H20	-3.392749  4.048473  -1.679421 H	1 RES1 0.0
62 H21	-1.047224  3.104696  2.547693 H	1 RES1 0.0
63 H22	-0.285922  4.688796  4.343673 H	1 RES1 0.0
64 H23	1.356052  6.35665  3.834474 H	1 RES1 0.0
65 H24	1.32402  7.252115  1.541533 H	1 RES1 0.0
66 H25	0.237291  5.998667  -0.237572 H	1 RES1 0.0
67 H26	-1.545101  6.459976  -0.757128 H	1 RES1 0.0
68 H27	-1.863518  7.093327  -3.167932 H	1 RES1 0.0
69 H28	-0.690799  5.889093  -4.874288 H	1 RES1 0.0
70 H29	-0.262182  3.506526  -4.426937 H	1 RES1 0.0
71 H30	-0.338232  2.665483  -2.145668 H	1 RES1 0.0
72 S3	-0.743377  -1.051212  1.820781 S.3	1 RES1 0.0
73 C39	-1.346746  -1.904437  3.298635 C.3	1 RES1 0.0
74 C40	-1.50516  -3.386174  2.999035 C.ar	1 RES1 0.0
75 C41	-0.376876  -4.189457  3.015717 C.ar	1 RES1 0.0
76 C42	-0.535944  -5.415682  2.32788 C.ar	1 RES1 0.0
77 C43	-1.700761  -5.948339  2.006174 C.ar	1 RES1 0.0
78 C44	-2.787463  -5.121457  2.075416 C.ar	1 RES1 0.0
79 C45	-2.683716  -3.861795  2.614288 C.ar	1 RES1 0.0
80 C46	-0.350835  -1.720339  4.432068 C.ar	1 RES1 0.0
81 C47	0.951749  -2.086137  4.135367 C.ar	1 RES1 0.0
82 C48	1.828095  -2.036417  5.245139 C.ar	1 RES1 0.0
83 C49	1.58288  -1.379547  6.36425 C.ar	1 RES1 0.0
84 C50	0.289421  -0.985558  6.56719 C.ar	1 RES1 0.0
85 C51	-0.654134  -1.121273  5.577655 C.ar	1 RES1 0.0
86 C52	-2.690939  -1.323316  3.705874 C.ar	1 RES1 0.0
87 C53	-3.284344  -1.733451  4.88834 C.ar	1 RES1 0.0
88 C54	-4.641524  -1.352539  5.010902 C.ar	1 RES1 0.0
89 C55	-5.222301  -0.408671  4.292691 C.ar	1 RES1 0.0
90 C56	-4.553341  0.001919  3.173156 C.ar	1 RES1 0.0
91 C57	-3.27388  -0.428406  2.916851 C.ar	1 RES1 0.0
92 H31	0.532503  -3.908212  3.50442 H	1 RES1 0.0
93 H32	0.349085  -5.94845  2.048987 H	1 RES1 0.0
94 H33	-1.789339  -6.971955  1.707401 H	1 RES1 0.0
95 H34	-3.732278  -5.460187  1.704624 H	1 RES1 0.0
96 H35	-3.560558  -3.258627  2.724906 H	1 RES1 0.0
97 H36	1.266706  -2.379681  3.155809 H	1 RES1 0.0
98 H37	2.753866  -2.568003  5.172585 H	1 RES1 0.0
99 H38	2.354905  -1.167085  7.073994 H	1 RES1 0.0
100 H39	0.007927  -0.565501  7.510171 H	1 RES1 0.0
101 H40	-1.642282  -0.740781  5.731571 H	1 RES1 0.0
102 H41	-2.763663  -2.288015  5.640835 H	1 RES1 0.0
103 H42	-5.238821  -1.864869  5.735922 H	1 RES1 0.0
104 H43	-6.165636  0.012128  4.571881 H	1 RES1 0.0
105 H44	-5.033107  0.667934  2.486753 H	1 RES1 0.0
106 H45	-2.742421  -0.038867  2.073815 H	1 RES1 0.0
107 H46	-0.526698  -0.744805  -1.29006 H	2 RES2 0.0
@<TRIPOS>BOND
1 1 2 1
1 1 37 1
1 1 72 1
1 2 3 1
1 3 4 1
1 3 10 1
1 3 16 1
1 4 5 2
1 4 9 1
1 5 6 1
1 5 22 1
1 6 7 2
1 6 23 1
1 7 8 1
1 7 24 1
1 8 9 2
1 8 25 1
1 9 26 1
1 10 11 2
1 10 15 1
1 11 12 1
1 11 27 1
1 12 13 2
1 12 28 1
1 13 14 1
1 13 29 1
1 14 15 2
1 14 30 1
1 15 31 1
1 16 17 2
1 16 21 1
1 17 18 1
1 17 32 1
1 18 19 2
1 18 33 1
1 19 20 1
1 19 34 1
1 20 21 2
1 20 35 1
1 21 36 1
1 37 38 1
1 38 39 1
1 38 45 1
1 38 51 1
1 39 40 2
1 39 44 1
1 40 41 1
1 40 57 1
1 41 42 2
1 41 58 1
1 42 43 1
1 42 59 1
1 43 44 2
1 43 60 1
1 44 61 1
1 45 46 2
1 45 50 1
1 46 47 1
1 46 62 1
1 47 48 2
1 47 63 1
1 48 49 1
1 48 64 1
1 49 50 2
1 49 65 1
1 50 66 1
1 51 52 2
1 51 56 1
1 52 53 1
1 52 67 1
1 53 54 2
1 53 68 1
1 54 55 1
1 54 69 1
1 55 56 2
1 55 70 1
1 56 71 1
1 72 73 1
1 73 74 1
1 73 80 1
1 73 86 1
1 74 75 2
1 74 79 1
1 75 76 1
1 75 92 1
1 76 77 2
1 76 93 1
1 77 78 1
1 77 94 1
1 78 79 2
1 78 95 1
1 79 96 1
1 80 81 2
1 80 85 1
1 81 82 1
1 81 97 1
1 82 83 2
1 82 98 1
1 83 84 1
1 83 99 1
1 84 85 2
1 84 100 1
1 85 101 1
1 86 87 2
1 86 91 1
1 87 88 1
1 87 102 1
1 88 89 2
1 88 103 1
1 89 90 1
1 89 104 1
1 90 91 2
1 90 105 1
1 91 106 1
@<TRIPOS>SUBSTRUCTURE
1 RES1 106
2 RES2 1

