@<TRIPOS>MOLECULE
/home/jovyan/shared-scratch-kabdelma-pvc/kabdelma/HER-metal-complex-ligands/Runs//ni_oct_2_2-Mercaptonicotinic_3_s_1/ni_oct_2_2-Mercaptonicotinic_3_s_1_conf_1
40	45	1
SMALL
PartialCharges
****
Generated from molSimplify

@<TRIPOS>ATOM
1 Ni1	0.0  0.0  0.0 Ni	1 RES1 0.0
2 O1	4.3347  3.081611  1.022046 O.co2	1 RES1 0.0
3 C1	3.706275  3.283183  -0.071334 C.2	1 RES1 0.0
4 O2	4.257575  3.739719  -1.137244 O.co2	1 RES1 0.0
5 C2	2.200243  3.284664  -0.048704 C.2	1 RES1 0.0
6 C3	1.591249  4.556831  -0.093832 C.2	1 RES1 0.0
7 C4	0.210583  4.688421  -0.083105 C.2	1 RES1 0.0
8 C5	-0.531117  3.527262  -0.034082 C.3	1 RES1 0.0
9 N1	0.0  2.289909  0.0 N.pl3	1 RES1 0.0
10 C6	1.339489  2.186722  -0.004874 C.2	1 RES1 0.0
11 S1	1.747413  0.542496  0.0 S.3	1 RES1 0.0
12 H1	2.230559  5.434895  -0.143684 H	1 RES1 0.0
13 H2	-0.261441  5.658895  -0.116445 H	1 RES1 0.0
14 H3	-1.613512  3.550803  -0.024412 H	1 RES1 0.0
15 O3	1.022046  -3.081611  4.3347 O.co2	1 RES1 0.0
16 C7	-0.071334  -3.283183  3.706275 C.2	1 RES1 0.0
17 O4	-1.137244  -3.739719  4.257575 O.co2	1 RES1 0.0
18 C8	-0.048704  -3.284664  2.200243 C.2	1 RES1 0.0
19 C9	-0.093832  -4.556831  1.591249 C.2	1 RES1 0.0
20 C10	-0.083105  -4.688421  0.210583 C.2	1 RES1 0.0
21 C11	-0.034082  -3.527262  -0.531117 C.3	1 RES1 0.0
22 N2	-0.0  -2.289909  0.0 N.pl3	1 RES1 0.0
23 C12	-0.004874  -2.186722  1.339489 C.2	1 RES1 0.0
24 S2	-0.0  -0.542496  1.747413 S.3	1 RES1 0.0
25 H4	-0.143684  -5.434895  2.230559 H	1 RES1 0.0
26 H5	-0.116445  -5.658895  -0.261441 H	1 RES1 0.0
27 H6	-0.024412  -3.550803  -1.613512 H	1 RES1 0.0
28 O5	-3.081611  1.022046  -4.3347 O.co2	1 RES1 0.0
29 C13	-3.283183  -0.071334  -3.706275 C.2	1 RES1 0.0
30 O6	-3.739719  -1.137244  -4.257575 O.co2	1 RES1 0.0
31 C14	-3.284664  -0.048704  -2.200243 C.2	1 RES1 0.0
32 C15	-4.556831  -0.093832  -1.591249 C.2	1 RES1 0.0
33 C16	-4.688421  -0.083105  -0.210583 C.2	1 RES1 0.0
34 C17	-3.527262  -0.034082  0.531117 C.3	1 RES1 0.0
35 N3	-2.289909  0.0  0.0 N.pl3	1 RES1 0.0
36 C18	-2.186722  -0.004874  -1.339489 C.2	1 RES1 0.0
37 S3	-0.542496  0.0  -1.747413 S.3	1 RES1 0.0
38 H7	-5.434895  -0.143684  -2.230559 H	1 RES1 0.0
39 H8	-5.658895  -0.116445  0.261441 H	1 RES1 0.0
40 H9	-3.550803  -0.024412  1.613512 H	1 RES1 0.0
@<TRIPOS>BOND
1 1 9 1
1 1 11 1
1 1 22 1
1 1 24 1
1 1 35 1
1 1 37 1
1 2 3 2
1 3 4 1
1 3 5 1
1 5 6 1
1 5 10 2
1 6 7 2
1 6 12 1
1 7 8 1
1 7 13 1
1 8 9 1
1 8 14 1
1 9 10 1
1 10 11 1
1 15 16 2
1 16 17 1
1 16 18 1
1 18 19 1
1 18 23 2
1 19 20 2
1 19 25 1
1 20 21 1
1 20 26 1
1 21 22 1
1 21 27 1
1 22 23 1
1 23 24 1
1 28 29 2
1 29 30 1
1 29 31 1
1 31 32 1
1 31 36 2
1 32 33 2
1 32 38 1
1 33 34 1
1 33 39 1
1 34 35 1
1 34 40 1
1 35 36 1
1 36 37 1
@<TRIPOS>SUBSTRUCTURE
1 RES1 40

