@<TRIPOS>MOLECULE
/home/jovyan/shared-scratch-kabdelma-pvc/kabdelma/HER-metal-complex-ligands/Runs//ni_thd_2_4-4-39-methylene-bis(N-N-dimethylaniline)_4_s_1/badjob_ni_thd_2_4-4-39-methylene-bis(N-N-dimethylaniline)_4_s_1_conf_1
165	180	1
SMALL
PartialCharges
****
Generated from molSimplify

@<TRIPOS>ATOM
1 Ni1	0.0  0.0  0.0 Ni	1 RES1 0.0
2 C1	0.764754  -0.440679  -0.274592 C.3	1 RES1 0.0
3 N1	2.14  0.0  0.0 N.pl3	1 RES1 0.0
4 C2	2.753701  1.050602  -0.824928 C.3	1 RES1 0.0
5 C3	2.901544  -0.609922  1.09952 C.ar	1 RES1 0.0
6 C4	3.719721  0.181007  1.889193 C.ar	1 RES1 0.0
7 C5	4.69769  -0.545324  2.608963 C.ar	1 RES1 0.0
8 C6	4.652136  -1.846484  2.830146 C.ar	1 RES1 0.0
9 C7	5.528313  -2.51171  3.879044 C.3	1 RES1 0.0
10 C8	6.991268  -2.272954  3.542651 C.ar	1 RES1 0.0
11 C9	7.851144  -3.327099  3.281967 C.ar	1 RES1 0.0
12 C10	9.21678  -2.958298  3.249177 C.ar	1 RES1 0.0
13 C11	9.655116  -1.720366  3.109889 C.ar	1 RES1 0.0
14 C12	8.740383  -0.724799  3.313754 C.ar	1 RES1 0.0
15 C13	7.407862  -1.013496  3.483861 C.ar	1 RES1 0.0
16 N2	11.051388  -1.428461  2.754764 N.pl3	1 RES1 0.0
17 C14	12.001984  -2.529854  2.544525 C.3	1 RES1 0.0
18 C15	11.497065  -0.035163  2.609877 C.3	1 RES1 0.0
19 C16	3.774435  -2.563051  2.064885 C.ar	1 RES1 0.0
20 C17	2.87675  -1.930179  1.239338 C.ar	1 RES1 0.0
21 H1	0.372503  0.110322  -1.103709 H	1 RES1 0.0
22 H2	0.155974  -0.268267  0.588288 H	1 RES1 0.0
23 H3	0.764754  -1.48486  -0.508227 H	1 RES1 0.0
24 H4	3.021529  1.880279  -0.204603 H	1 RES1 0.0
25 H5	3.630307  0.663684  -1.301119 H	1 RES1 0.0
26 H6	2.055976  1.372563  -1.569522 H	1 RES1 0.0
27 H7	3.621144  1.244752  1.949442 H	1 RES1 0.0
28 H8	5.532192  -0.002605  3.001344 H	1 RES1 0.0
29 H9	5.311095  -2.096226  4.84086 H	1 RES1 0.0
30 H10	5.33247  -3.56355  3.892401 H	1 RES1 0.0
31 H11	7.513326  -4.329381  3.120075 H	1 RES1 0.0
32 H12	9.944987  -3.736539  3.343817 H	1 RES1 0.0
33 H13	9.066926  0.293785  3.34122 H	1 RES1 0.0
34 H14	6.699436  -0.216214  3.569737 H	1 RES1 0.0
35 H15	12.386285  -2.483792  1.546983 H	1 RES1 0.0
36 H16	12.808779  -2.442681  3.241937 H	1 RES1 0.0
37 H17	11.502818  -3.464784  2.691627 H	1 RES1 0.0
38 H18	10.929021  0.442706  1.83925 H	1 RES1 0.0
39 H19	11.351518  0.483815  3.534203 H	1 RES1 0.0
40 H20	12.535062  -0.017841  2.350719 H	1 RES1 0.0
41 H21	3.786813  -3.632047  2.109542 H	1 RES1 0.0
42 H22	2.151123  -2.506423  0.70426 H	1 RES1 0.0
43 C18	0.605932  1.376439  -0.096139 C.3	1 RES1 0.0
44 N3	-0.713377  2.017596  0.0 N.3	1 RES1 0.0
45 C19	-1.044299  2.846691  1.167901 C.3	1 RES1 0.0
46 C20	-1.701762  1.829659  -1.071762 C.3	1 RES1 0.0
47 C21	-2.494956  2.893715  -1.468237 C.3	1 RES1 0.0
48 C22	-3.659954  2.508912  -2.173048 C.3	1 RES1 0.0
49 C23	-3.838933  1.327725  -2.735878 C.2	1 RES1 0.0
50 C24	-4.940761  1.084554  -3.75433 C.3	1 RES1 0.0
51 C25	-6.291309  1.367965  -3.117072 C.ar	1 RES1 0.0
52 C26	-7.253543  0.378579  -2.999651 C.ar	1 RES1 0.0
53 C27	-8.531545  0.862474  -2.632762 C.ar	1 RES1 0.0
54 C28	-8.757893  2.047626  -2.095921 C.ar	1 RES1 0.0
55 C29	-7.742765  2.959277  -2.184559 C.ar	1 RES1 0.0
56 C30	-6.504321  2.594353  -2.654646 C.ar	1 RES1 0.0
57 N4	-10.032671  2.369393  -1.438421 N.pl3	1 RES1 0.0
58 C31	-11.097729  1.358826  -1.365563 C.3	1 RES1 0.0
59 C32	-10.242392  3.701726  -0.853779 C.3	1 RES1 0.0
60 C33	-2.979805  0.335301  -2.353199 C.2	1 RES1 0.0
61 C34	-1.892637  0.609199  -1.558881 C.3	1 RES1 0.0
62 H23	1.18653  1.623838  0.767921 H	1 RES1 0.0
63 H24	1.108156  1.723864  -0.974756 H	1 RES1 0.0
64 H25	0.483425  0.314921  -0.151561 H	1 RES1 0.0
65 H26	-1.269398  3.842113  0.846396 H	1 RES1 0.0
66 H27	-1.894127  2.433168  1.66959 H	1 RES1 0.0
67 H28	-0.210249  2.86828  1.837822 H	1 RES1 0.0
68 H29	-2.249016  3.914112  -1.260381 H	1 RES1 0.0
69 H30	-4.450939  3.224733  -2.255767 H	1 RES1 0.0
70 H31	-4.799605  1.732496  -4.59406 H	1 RES1 0.0
71 H32	-4.906829  0.065927  -4.080133 H	1 RES1 0.0
72 H33	-7.048976  -0.657636  -3.170859 H	1 RES1 0.0
73 H34	-9.373124  0.223738  -2.802053 H	1 RES1 0.0
74 H35	-7.915262  3.971461  -1.883514 H	1 RES1 0.0
75 H36	-5.70428  3.304839  -2.648041 H	1 RES1 0.0
76 H37	-11.329098  1.15776  -0.340409 H	1 RES1 0.0
77 H38	-11.971372  1.72488  -1.863209 H	1 RES1 0.0
78 H39	-10.767961  0.458257  -1.840039 H	1 RES1 0.0
79 H40	-9.508601  3.877888  -0.095217 H	1 RES1 0.0
80 H41	-10.150878  4.445007  -1.618016 H	1 RES1 0.0
81 H42	-11.220353  3.752074  -0.422551 H	1 RES1 0.0
82 H43	-3.156641  -0.669096  -2.676952 H	1 RES1 0.0
83 H44	-1.193478  -0.168  -1.330764 H	1 RES1 0.0
84 C35	-0.041862  0.298249  1.706924 C.3	1 RES1 0.0
85 N5	-0.713375  -1.008786  1.747297 N.pl3	1 RES1 0.0
86 C36	0.07564  -2.235052  1.933377 C.3	1 RES1 0.0
87 C37	-2.173905  -1.089555  1.60159 C.ar	1 RES1 0.0
88 C38	-2.891624  -1.990497  2.370841 C.ar	1 RES1 0.0
89 C39	-4.180022  -2.279596  1.862408 C.ar	1 RES1 0.0
90 C40	-4.818592  -1.538766  0.975045 C.ar	1 RES1 0.0
91 C41	-6.308753  -1.698968  0.721755 C.3	1 RES1 0.0
92 C42	-6.593395  -3.116358  0.252304 C.ar	1 RES1 0.0
93 C43	-7.147801  -3.364542  -0.992527 C.ar	1 RES1 0.0
94 C44	-7.58999  -4.697135  -1.167793 C.ar	1 RES1 0.0
95 C45	-7.215481  -5.715628  -0.415177 C.ar	1 RES1 0.0
96 C46	-6.611823  -5.405131  0.771684 C.ar	1 RES1 0.0
97 C47	-6.267213  -4.10926  1.071444 C.ar	1 RES1 0.0
98 N6	-7.435769  -7.10825  -0.831082 N.pl3	1 RES1 0.0
99 C48	-8.088947  -7.397046  -2.115938 C.3	1 RES1 0.0
100 C49	-7.002879  -8.212075  0.037869 C.3	1 RES1 0.0
101 C50	-4.067192  -0.619899  0.296421 C.ar	1 RES1 0.0
102 C51	-2.762112  -0.374911  0.649467 C.ar	1 RES1 0.0
103 H45	1.012368  0.161511  1.828587 H	1 RES1 0.0
104 H46	-0.415012  0.915514  2.497268 H	1 RES1 0.0
105 H47	-0.234152  0.769102  0.765531 H	1 RES1 0.0
106 H48	-0.245723  -2.734312  2.823526 H	1 RES1 0.0
107 H49	-0.064861  -2.880721  1.091788 H	1 RES1 0.0
108 H50	1.111823  -1.982711  2.02026 H	1 RES1 0.0
109 H51	-2.506675  -2.428143  3.268159 H	1 RES1 0.0
110 H52	-4.671091  -3.159666  2.221891 H	1 RES1 0.0
111 H53	-6.846893  -1.508132  1.626678 H	1 RES1 0.0
112 H54	-6.619235  -1.004808  -0.031002 H	1 RES1 0.0
113 H55	-7.233878  -2.616409  -1.75265 H	1 RES1 0.0
114 H56	-8.275493  -4.893291  -1.965608 H	1 RES1 0.0
115 H57	-6.404797  -6.182483  1.477209 H	1 RES1 0.0
116 H58	-5.731152  -3.898276  1.973123 H	1 RES1 0.0
117 H59	-7.426051  -7.966994  -2.732889 H	1 RES1 0.0
118 H60	-8.984571  -7.956368  -1.942976 H	1 RES1 0.0
119 H61	-8.331662  -6.477988  -2.607183 H	1 RES1 0.0
120 H62	-5.945546  -8.152109  0.190682 H	1 RES1 0.0
121 H63	-7.504068  -8.141485  0.980592 H	1 RES1 0.0
122 H64	-7.243927  -9.146096  -0.425165 H	1 RES1 0.0
123 H65	-4.501739  -0.083885  -0.521356 H	1 RES1 0.0
124 H66	-2.214803  0.398749  0.152674 H	1 RES1 0.0
125 C52	-1.47326  -0.783795  -0.509212 C.3	1 RES1 0.0
126 N7	-0.713375  -1.008786  -1.747297 N.3	1 RES1 0.0
127 C53	0.094717  -2.22688  -1.902644 C.3	1 RES1 0.0
128 C54	-0.761584  -0.015682  -2.830035 C.3	1 RES1 0.0
129 C55	-0.809531  -0.439005  -4.148012 C.3	1 RES1 0.0
130 C56	-0.43025  0.553031  -5.082924 C.3	1 RES1 0.0
131 C57	-0.38188  1.847051  -4.823717 C.2	1 RES1 0.0
132 C58	-0.302851  2.883571  -5.932672 C.3	1 RES1 0.0
133 C59	0.95503  2.65199  -6.753956 C.ar	1 RES1 0.0
134 C60	1.942997  3.618498  -6.845335 C.ar	1 RES1 0.0
135 C61	2.908581  3.358406  -7.846359 C.ar	1 RES1 0.0
136 C62	3.107843  2.179135  -8.406386 C.ar	1 RES1 0.0
137 C63	2.126579  1.244944  -8.222381 C.ar	1 RES1 0.0
138 C64	1.082042  1.477636  -7.360586 C.ar	1 RES1 0.0
139 N8	4.319459  1.886577  -9.185678 N.pl3	1 RES1 0.0
140 C65	5.349748  2.920759  -9.35852 C.3	1 RES1 0.0
141 C66	4.500788  0.559837  -9.792127 C.3	1 RES1 0.0
142 C67	-0.406714  2.204272  -3.504162 C.2	1 RES1 0.0
143 C68	-0.641546  1.270778  -2.523684 C.3	1 RES1 0.0
144 H67	-1.318351  -1.605314  0.158629 H	1 RES1 0.0
145 H68	-2.515004  -0.703115  -0.739773 H	1 RES1 0.0
146 H69	-1.139538  0.120811  -0.045297 H	1 RES1 0.0
147 H70	-0.255959  -2.782223  -2.747346 H	1 RES1 0.0
148 H71	1.119507  -1.958296  -2.052869 H	1 RES1 0.0
149 H72	0.008807  -2.826761  -1.020793 H	1 RES1 0.0
150 H73	-1.106451  -1.426612  -4.433267 H	1 RES1 0.0
151 H74	-0.164113  0.232478  -6.068479 H	1 RES1 0.0
152 H75	-1.162203  2.796466  -6.564199 H	1 RES1 0.0
153 H76	-0.273349  3.863352  -5.503651 H	1 RES1 0.0
154 H77	1.973259  4.483343  -6.216027 H	1 RES1 0.0
155 H78	3.519834  4.173916  -8.172263 H	1 RES1 0.0
156 H79	2.172757  0.319342  -8.757196 H	1 RES1 0.0
157 H80	0.364453  0.705546  -7.176623 H	1 RES1 0.0
158 H81	6.275531  2.573828  -8.949296 H	1 RES1 0.0
159 H82	5.475828  3.127951  -10.40067 H	1 RES1 0.0
160 H83	5.04782  3.813269  -8.851406 H	1 RES1 0.0
161 H84	4.500496  -0.186055  -9.02496 H	1 RES1 0.0
162 H85	3.700797  0.368069  -10.476334 H	1 RES1 0.0
163 H86	5.433058  0.531775  -10.316517 H	1 RES1 0.0
164 H87	-0.240888  3.225473  -3.231121 H	1 RES1 0.0
165 H88	-0.728482  1.58329  -1.504038 H	1 RES1 0.0
@<TRIPOS>BOND
1 1 2 1
1 1 43 1
1 1 84 1
1 1 85 1
1 1 125 1
1 1 126 1
1 2 3 1
1 2 21 1
1 2 22 1
1 2 23 1
1 2 64 1
1 3 4 1
1 3 5 1
1 4 24 1
1 4 25 1
1 4 26 1
1 5 6 2
1 5 20 1
1 6 7 1
1 6 27 1
1 7 8 2
1 7 28 1
1 8 9 1
1 8 19 1
1 9 10 1
1 9 29 1
1 9 30 1
1 10 11 2
1 10 15 1
1 11 12 1
1 11 31 1
1 12 13 2
1 12 32 1
1 13 14 1
1 13 16 1
1 14 15 2
1 14 33 1
1 15 34 1
1 16 17 1
1 16 18 1
1 17 35 1
1 17 36 1
1 17 37 1
1 18 38 1
1 18 39 1
1 18 40 1
1 19 20 2
1 19 41 1
1 20 42 1
1 22 84 1
1 43 44 1
1 43 62 1
1 43 63 1
1 43 64 1
1 44 45 1
1 44 46 1
1 45 65 1
1 45 66 1
1 45 67 1
1 46 47 1
1 46 61 1
1 46 165 1
1 47 48 1
1 47 68 1
1 48 49 1
1 48 69 1
1 49 50 1
1 49 60 2
1 50 51 1
1 50 70 1
1 50 71 1
1 51 52 2
1 51 56 1
1 52 53 1
1 52 72 1
1 53 54 2
1 53 73 1
1 54 55 1
1 54 57 1
1 55 56 2
1 55 74 1
1 56 75 1
1 57 58 1
1 57 59 1
1 58 76 1
1 58 77 1
1 58 78 1
1 59 79 1
1 59 80 1
1 59 81 1
1 60 61 1
1 60 82 1
1 61 83 1
1 61 143 1
1 83 125 1
1 83 126 1
1 84 85 1
1 84 103 1
1 84 104 1
1 84 105 1
1 85 86 1
1 85 87 1
1 86 106 1
1 86 107 1
1 86 108 1
1 87 88 2
1 87 102 1
1 88 89 1
1 88 109 1
1 89 90 2
1 89 110 1
1 90 91 1
1 90 101 1
1 91 92 1
1 91 111 1
1 91 112 1
1 92 93 2
1 92 97 1
1 93 94 1
1 93 113 1
1 94 95 2
1 94 114 1
1 95 96 1
1 95 98 1
1 96 97 2
1 96 115 1
1 97 116 1
1 98 99 1
1 98 100 1
1 99 117 1
1 99 118 1
1 99 119 1
1 100 120 1
1 100 121 1
1 100 122 1
1 101 102 2
1 101 123 1
1 102 124 1
1 125 126 1
1 125 144 1
1 125 145 1
1 125 146 1
1 126 127 1
1 126 128 1
1 127 147 1
1 127 148 1
1 127 149 1
1 128 129 1
1 128 143 1
1 129 130 1
1 129 150 1
1 130 131 1
1 130 151 1
1 131 132 1
1 131 142 2
1 132 133 1
1 132 152 1
1 132 153 1
1 133 134 2
1 133 138 1
1 134 135 1
1 134 154 1
1 135 136 2
1 135 155 1
1 136 137 1
1 136 139 1
1 137 138 2
1 137 156 1
1 138 157 1
1 139 140 1
1 139 141 1
1 140 158 1
1 140 159 1
1 140 160 1
1 141 161 1
1 141 162 1
1 141 163 1
1 142 143 1
1 142 164 1
1 143 165 1
@<TRIPOS>SUBSTRUCTURE
1 RES1 165

