@<TRIPOS>MOLECULE
/Users/abdulahmed/Documents/GitHub/HER-metal-complex-ligands/Runs//ni_li_2_2_6diphenylpyridine_2_s_1/badjob_ni_li_2_2_6diphenylpyridine_2_s_1_conf_1
63	97	1
SMALL
PartialCharges
****
Generated from molSimplify

@<TRIPOS>ATOM
1 Ni1	0.0  0.0  0.0 Ni	1 RES1 0.0
2 C1	3.751633  -2.874804  3.766947 C.ar	1 RES1 0.0
3 C2	3.993238  -1.518619  3.622189 C.ar	1 RES1 0.0
4 C3	3.035348  -0.847455  2.825925 C.ar	1 RES1 0.0
5 C4	2.201376  -1.44516  1.994507 C.ar	1 RES1 0.0
6 C5	2.05787  -2.796632  2.1441 C.ar	1 RES1 0.0
7 C6	2.868652  -3.502942  2.999467 C.ar	1 RES1 0.0
8 C7	1.441875  -0.672251  0.928594 C.3	1 RES1 0.0
9 C8	0.061205  -0.68923  0.952395 C.3	1 RES1 0.0
10 C9	-0.651477  -0.002934  -0.033997 C.3	1 RES1 0.0
11 C10	0.07827  0.687818  -0.99318 C.3	1 RES1 0.0
12 C11	1.452737  0.672251  -0.928594 C.3	1 RES1 0.0
13 N1	2.14  0.0  0.0 N.4	1 RES1 0.0
14 C12	2.230884  1.461615  -1.968687 C.ar	1 RES1 0.0
15 C13	2.976398  0.703066  -2.856029 C.ar	1 RES1 0.0
16 C14	3.794509  1.469849  -3.71904 C.ar	1 RES1 0.0
17 C15	3.636405  2.760427  -3.950181 C.ar	1 RES1 0.0
18 C16	2.833283  3.440626  -3.077383 C.ar	1 RES1 0.0
19 C17	2.103664  2.774389  -2.122564 C.ar	1 RES1 0.0
20 H1	4.286626  -3.426738  4.511293 H	1 RES1 0.0
21 H2	4.828472  -1.023443  4.071729 H	1 RES1 0.0
22 H3	2.983049  0.218501  2.902759 H	1 RES1 0.0
23 H4	1.303316  -3.311639  1.587039 H	1 RES1 0.0
24 H5	2.787803  -4.568798  3.047579 H	1 RES1 0.0
25 H6	-0.458484  -1.223632  1.720013 H	1 RES1 0.0
26 H7	-1.721339  -0.009158  -0.050053 H	1 RES1 0.0
27 H8	-0.421767  1.224874  -1.771918 H	1 RES1 0.0
28 H9	2.937191  -0.365792  -2.886141 H	1 RES1 0.0
29 H10	4.597094  0.969221  -4.219168 H	1 RES1 0.0
30 H11	4.111266  3.247583  -4.776066 H	1 RES1 0.0
31 H12	2.772086  4.507108  -3.138795 H	1 RES1 0.0
32 H13	1.426826  3.31833  -1.49733 H	1 RES1 0.0
33 C18	-3.751633  -4.003355  2.535257 C.ar	1 RES1 0.0
34 C19	-3.993238  -3.74085  1.196869 C.ar	1 RES1 0.0
35 C20	-3.035348  -2.889076  0.597721 C.ar	1 RES1 0.0
36 C21	-2.201376  -2.112965  1.265672 C.ar	1 RES1 0.0
37 C22	-2.05787  -2.379875  2.598944 C.ar	1 RES1 0.0
38 C23	-2.868652  -3.293593  3.227949 C.ar	1 RES1 0.0
39 C24	-1.441875  -0.983694  0.588688 C.3	1 RES1 0.0
40 C25	-0.061205  -1.008885  0.603526 C.3	1 RES1 0.0
41 C26	0.651477  0.033611  0.005888 C.3	1 RES1 0.0
42 C27	-0.07827  1.049392  -0.598561 C.3	1 RES1 0.0
43 C28	-1.452737  0.983694  -0.588688 C.3	1 RES1 0.0
44 N2	-2.14  0.0  0.0 N.4	1 RES1 0.0
45 C29	-2.230884  2.088678  -1.284317 C.ar	1 RES1 0.0
46 C30	-2.976398  2.906471  -0.451256 C.ar	1 RES1 0.0
47 C31	-3.794509  3.833078  -1.139837 C.ar	1 RES1 0.0
48 C32	-3.636405  4.175914  -2.405334 C.ar	1 RES1 0.0
49 C33	-2.833283  3.365776  -3.159073 C.ar	1 RES1 0.0
50 C34	-2.103664  2.356482  -2.578664 C.ar	1 RES1 0.0
51 H14	-4.286626  -4.793009  3.020159 H	1 RES1 0.0
52 H15	-4.828472  -4.145482  0.664368 H	1 RES1 0.0
53 H16	-2.983049  -2.872635  -0.470874 H	1 RES1 0.0
54 H17	-1.303316  -1.869862  3.160579 H	1 RES1 0.0
55 H18	-2.787803  -3.434495  4.285545 H	1 RES1 0.0
56 H19	0.458484  -1.820193  1.068932 H	1 RES1 0.0
57 H20	1.721339  0.049064  0.013489 H	1 RES1 0.0
58 H21	0.421767  1.872009  -1.065642 H	1 RES1 0.0
59 H22	-2.937191  2.843232  0.616154 H	1 RES1 0.0
60 H23	-4.597094  4.287631  -0.597491 H	1 RES1 0.0
61 H24	-4.111266  5.041145  -2.818591 H	1 RES1 0.0
62 H25	-2.772086  3.519983  -4.216133 H	1 RES1 0.0
63 H26	-1.426826  1.781078  -3.17507 H	1 RES1 0.0
@<TRIPOS>BOND
1 1 10 1
1 1 40 1
1 1 41 1
1 1 42 1
1 2 3 2
1 2 7 1
1 2 20 1
1 3 4 1
1 3 21 1
1 4 5 2
1 4 22 1
1 5 6 1
1 5 8 1
1 6 7 2
1 6 23 1
1 7 24 1
1 8 9 1
1 8 13 1
1 8 40 1
1 8 41 1
1 8 57 1
1 9 10 1
1 9 25 1
1 9 39 1
1 9 40 1
1 9 41 1
1 9 56 1
1 10 11 1
1 10 26 1
1 10 39 1
1 10 40 1
1 10 41 1
1 10 42 1
1 10 43 1
1 10 44 1
1 11 12 1
1 11 27 1
1 11 41 1
1 11 42 1
1 11 43 1
1 11 58 1
1 12 13 1
1 12 14 1
1 12 41 1
1 12 42 1
1 12 57 1
1 13 41 1
1 13 57 1
1 14 15 2
1 14 19 1
1 15 16 1
1 15 28 1
1 16 17 2
1 16 29 1
1 17 18 1
1 17 30 1
1 18 19 2
1 18 31 1
1 19 32 1
1 25 40 1
1 26 39 1
1 26 43 1
1 26 44 1
1 27 42 1
1 33 34 2
1 33 38 1
1 33 51 1
1 34 35 1
1 34 52 1
1 35 36 2
1 35 53 1
1 36 37 1
1 36 39 1
1 37 38 2
1 37 54 1
1 38 55 1
1 39 40 1
1 39 44 1
1 40 41 1
1 40 56 1
1 41 42 1
1 41 57 1
1 42 43 1
1 42 58 1
1 43 44 1
1 43 45 1
1 45 46 2
1 45 50 1
1 46 47 1
1 46 59 1
1 47 48 2
1 47 60 1
1 48 49 1
1 48 61 1
1 49 50 2
1 49 62 1
1 50 63 1
@<TRIPOS>SUBSTRUCTURE
1 RES1 63

