@<TRIPOS>MOLECULE
/Users/abdulahmed/Documents/GitHub/HER-metal-complex-ligands/Runs//3_bromopyridine_2_1H__thione_hydride/3_bromopyridine_2_1H__thione_hydride
25	28	3
SMALL
PartialCharges
****
Generated from molSimplify

@<TRIPOS>ATOM
1 Ni1	0.0  0.0  0.0 Ni	1 RES1 0.0
2 S1	0.0  2.23  0.0 S.3	1 RES1 0.0
3 C1	1.646144  1.78232  0.006327 C.3	1 RES1 0.0
4 N1	1.787066  0.442934  0.0 N.pl3	1 RES1 0.0
5 C2	3.042225  -0.048393  0.004032 C.2	1 RES1 0.0
6 C3	4.180308  0.738038  0.014192 C.2	1 RES1 0.0
7 C4	4.015928  2.119135  0.020615 C.2	1 RES1 0.0
8 C5	2.72801  2.665663  0.016701 C.2	1 RES1 0.0
9 Br1	2.604342  4.564511  0.026073 Br	1 RES1 0.0
10 H1	3.103827  -1.131116  -0.001359 H	1 RES1 0.0
11 H2	5.164663  0.28888  0.017017 H	1 RES1 0.0
12 H3	4.887523  2.76467  0.028624 H	1 RES1 0.0
13 S2	-0.0  -2.23  0.0 S.3	1 RES1 0.0
14 C6	0.006327  -1.78232  1.646144 C.3	1 RES1 0.0
15 N2	-0.0  -0.442934  1.787066 N.pl3	1 RES1 0.0
16 C7	0.004032  0.048393  3.042225 C.2	1 RES1 0.0
17 C8	0.014192  -0.738038  4.180308 C.2	1 RES1 0.0
18 C9	0.020615  -2.119135  4.015928 C.2	1 RES1 0.0
19 C10	0.016701  -2.665663  2.72801 C.2	1 RES1 0.0
20 Br2	0.026073  -4.564511  2.604342 Br	1 RES1 0.0
21 H4	-0.001359  1.131116  3.103827 H	1 RES1 0.0
22 H5	0.017017  -0.28888  5.164663 H	1 RES1 0.0
23 H6	0.028624  -2.76467  4.887523 H	1 RES1 0.0
24 H7	-1.58  0.0  0.0 H	2 RES2 0.0
25 H8	0.0  0.0  -1.58 H	3 RES3 0.0
@<TRIPOS>BOND
1 1 2 1
1 1 3 1
1 1 4 1
1 1 13 1
1 1 14 1
1 1 15 1
1 2 3 1
1 3 4 1
1 3 8 1
1 4 5 1
1 5 6 2
1 5 10 1
1 6 7 1
1 6 11 1
1 7 8 2
1 7 12 1
1 8 9 1
1 13 14 1
1 14 15 1
1 14 19 1
1 15 16 1
1 16 17 2
1 16 21 1
1 17 18 1
1 17 22 1
1 18 19 2
1 18 23 1
1 19 20 1
@<TRIPOS>SUBSTRUCTURE
1 RES1 23
2 RES2 1
3 RES3 1

