@<TRIPOS>MOLECULE
/Users/abdulahmed/Documents/GitHub/HER-metal-complex-ligands/Runs//3_aminopyridine_2_1H_thione_hydride/3_aminopyridine_2_1H_thione_hydride
29	32	3
SMALL
PartialCharges
****
Generated from molSimplify

@<TRIPOS>ATOM
1 Ni1	0.0  0.0  0.0 Ni	1 RES1 0.0
2 C1	0.387928  4.531542  0.049169 C.2	1 RES1 0.0
3 C2	-0.439663  3.416232  0.028783 C.2	1 RES1 0.0
4 N1	0.0  2.14  0.0 N.pl3	1 RES1 0.0
5 C3	1.318397  1.979962  -0.031291 C.3	1 RES1 0.0
6 S1	1.786666  0.353334  0.0 S.3	1 RES1 0.0
7 C4	2.253348  3.028421  -0.065066 C.2	1 RES1 0.0
8 C5	1.764035  4.327303  0.024551 C.2	1 RES1 0.0
9 N2	3.654276  2.779262  0.073111 N.pl3	1 RES1 0.0
10 H1	-0.029094  5.528808  0.093372 H	1 RES1 0.0
11 H2	-1.519282  3.519841  0.0478 H	1 RES1 0.0
12 H3	2.451635  5.163665  0.064524 H	1 RES1 0.0
13 H4	3.803983  2.641922  1.07176 H	1 RES1 0.0
14 H5	3.724144  1.814521  -0.297903 H	1 RES1 0.0
15 C6	0.049169  -4.531542  0.387928 C.2	1 RES1 0.0
16 C7	0.028783  -3.416232  -0.439663 C.2	1 RES1 0.0
17 N3	-0.0  -2.14  0.0 N.pl3	1 RES1 0.0
18 C8	-0.031291  -1.979962  1.318397 C.3	1 RES1 0.0
19 S2	-0.0  -0.353334  1.786666 S.3	1 RES1 0.0
20 C9	-0.065066  -3.028421  2.253348 C.2	1 RES1 0.0
21 C10	0.024551  -4.327303  1.764035 C.2	1 RES1 0.0
22 N4	0.073111  -2.779262  3.654276 N.pl3	1 RES1 0.0
23 H6	0.093372  -5.528808  -0.029094 H	1 RES1 0.0
24 H7	0.0478  -3.519841  -1.519282 H	1 RES1 0.0
25 H8	0.064524  -5.163665  2.451635 H	1 RES1 0.0
26 H9	1.07176  -2.641922  3.803983 H	1 RES1 0.0
27 H10	-0.297903  -1.814521  3.724144 H	1 RES1 0.0
28 H11	-1.58  0.0  0.0 H	2 RES2 0.0
29 H12	0.0  0.0  -1.58 H	3 RES3 0.0
@<TRIPOS>BOND
1 1 4 1
1 1 5 1
1 1 6 1
1 1 17 1
1 1 18 1
1 1 19 1
1 2 3 2
1 2 8 1
1 2 10 1
1 3 4 1
1 3 11 1
1 4 5 1
1 5 6 1
1 5 7 1
1 7 8 2
1 7 9 1
1 8 12 1
1 9 13 1
1 9 14 1
1 15 16 2
1 15 21 1
1 15 23 1
1 16 17 1
1 16 24 1
1 17 18 1
1 18 19 1
1 18 20 1
1 20 21 2
1 20 22 1
1 21 25 1
1 22 26 1
1 22 27 1
@<TRIPOS>SUBSTRUCTURE
1 RES1 27
2 RES2 1
3 RES3 1

