@<TRIPOS>MOLECULE
/Users/abdulahmed/Documents/GitHub/HER-metal-complex-ligands/Runs//1_2_benzenedithiol_hydride/1_2_benzenedithiol_hydride
27	28	3
SMALL
PartialCharges
****
Generated from molSimplify

@<TRIPOS>ATOM
1 Ni1	0.0  0.0  0.0 Ni	1 RES1 0.0
2 S1	-0.0  2.23  -0.0 S.3	1 RES1 0.0
3 C1	1.744239  2.655231  -4.3e-05 C.ar	1 RES1 0.0
4 C2	2.740869  1.658613  9.4e-05 C.ar	1 RES1 0.0
5 C3	2.11425  4.006415  -9.6e-05 C.ar	1 RES1 0.0
6 C4	4.092121  2.028663  0.000122 C.ar	1 RES1 0.0
7 C5	4.452376  3.378931  0.00019 C.ar	1 RES1 0.0
8 C6	3.464644  4.36672  0.000109 C.ar	1 RES1 0.0
9 H1	1.355008  4.778268  -0.000105 H	1 RES1 0.0
10 H2	3.745494  5.411987  0.000196 H	1 RES1 0.0
11 H3	4.8638  1.269253  0.000242 H	1 RES1 0.0
12 H4	5.497638  3.65971  0.000305 H	1 RES1 0.0
13 S2	2.315886  -0.085886  -0.0 S.3	1 RES1 0.0
14 S3	0.0  -2.23  0.0 S.3	1 RES1 0.0
15 C7	-4.3e-05  -2.655231  1.744239 C.ar	1 RES1 0.0
16 C8	9.4e-05  -1.658613  2.740869 C.ar	1 RES1 0.0
17 C9	-9.6e-05  -4.006415  2.11425 C.ar	1 RES1 0.0
18 C10	0.000122  -2.028663  4.092121 C.ar	1 RES1 0.0
19 C11	0.00019  -3.378931  4.452376 C.ar	1 RES1 0.0
20 C12	0.000109  -4.36672  3.464644 C.ar	1 RES1 0.0
21 H5	-0.000105  -4.778268  1.355008 H	1 RES1 0.0
22 H6	0.000196  -5.411987  3.745494 H	1 RES1 0.0
23 H7	0.000242  -1.269253  4.8638 H	1 RES1 0.0
24 H8	0.000305  -3.65971  5.497638 H	1 RES1 0.0
25 S4	-0.0  0.085886  2.315886 S.3	1 RES1 0.0
26 H9	-1.58  0.0  0.0 H	2 RES2 0.0
27 H10	0.0  0.0  -1.58 H	3 RES3 0.0
@<TRIPOS>BOND
1 1 2 1
1 1 13 1
1 1 14 1
1 1 25 1
1 2 3 1
1 3 4 2
1 3 5 1
1 4 6 1
1 4 13 1
1 5 8 2
1 5 9 1
1 6 7 2
1 6 11 1
1 7 8 1
1 7 12 1
1 8 10 1
1 14 15 1
1 15 16 2
1 15 17 1
1 16 18 1
1 16 25 1
1 17 20 2
1 17 21 1
1 18 19 2
1 18 23 1
1 19 20 1
1 19 24 1
1 20 22 1
@<TRIPOS>SUBSTRUCTURE
1 RES1 25
2 RES2 1
3 RES3 1

