@<TRIPOS>MOLECULE
/Users/abdulahmed/Documents/GitHub/HER-metal-complex-ligands/Runs//ni_oct_2_1_10phenanthrolineanhyd_3_s_1/badjob_ni_oct_2_1_10phenanthrolineanhyd_3_s_1_conf_1
67	87	1
SMALL
PartialCharges
****
Generated from molSimplify

@<TRIPOS>ATOM
1 Ni1	0.0  0.0  0.0 Ni	1 RES1 0.0
2 C1	-0.740254  2.499249  -1.122364 C.2	1 RES1 0.0
3 C2	0.0  2.14  -0.0 C.3	1 RES1 0.0
4 N1	1.255504  2.506693  0.083347 N.pl3	1 RES1 0.0
5 C3	1.904246  2.431887  -1.07433 C.ar	1 RES1 0.0
6 C4	1.313359  2.771229  -2.299579 C.ar	1 RES1 0.0
7 C5	-0.067736  2.956902  -2.263945 C.2	1 RES1 0.0
8 C6	1.994264  2.549297  -3.503707 C.ar	1 RES1 0.0
9 C7	2.978988  1.564433  -3.503721 C.ar	1 RES1 0.0
10 C8	3.200606  0.88343  -2.299677 C.ar	1 RES1 0.0
11 C9	3.386483  -0.497656  -2.264024 C.2	1 RES1 0.0
12 C10	2.92884  -1.170085  -1.122376 C.2	1 RES1 0.0
13 C11	2.569792  -0.429792  -0.0 C.3	1 RES1 0.0
14 N2	2.937154  0.825591  0.083037 N.pl3	1 RES1 0.0
15 C12	2.861975  1.474468  -1.074544 C.ar	1 RES1 0.0
16 H1	-1.822084  2.42015  -1.111738 H	1 RES1 0.0
17 H2	-0.483347  1.819963  0.916178 H	1 RES1 0.0
18 H3	-0.634264  3.194724  -3.159234 H	1 RES1 0.0
19 H4	1.586668  2.888835  -4.452899 H	1 RES1 0.0
20 H5	3.318479  1.156846  -4.452939 H	1 RES1 0.0
21 H6	3.624182  -1.064158  -3.159313 H	1 RES1 0.0
22 H7	2.849619  -2.251902  -1.111779 H	1 RES1 0.0
23 H8	2.249781  -0.9131  0.916205 H	1 RES1 0.0
24 C13	-1.122364  -2.499249  -0.740254 C.3	1 RES1 0.0
25 C14	-0.0  -2.14  0.0 C.3	1 RES1 0.0
26 N3	0.083347  -2.506693  1.255504 N.3	1 RES1 0.0
27 C15	-1.07433  -2.431887  1.904246 C.3	1 RES1 0.0
28 C16	-2.299579  -2.771229  1.313359 C.3	1 RES1 0.0
29 C17	-2.263945  -2.956902  -0.067736 C.3	1 RES1 0.0
30 C18	-3.503707  -2.549297  1.994264 C.2	1 RES1 0.0
31 C19	-3.503721  -1.564433  2.978988 C.2	1 RES1 0.0
32 C20	-2.299677  -0.88343  3.200606 C.3	1 RES1 0.0
33 C21	-2.264024  0.497656  3.386483 C.2	1 RES1 0.0
34 C22	-1.122376  1.170085  2.92884 C.2	1 RES1 0.0
35 C23	-0.0  0.429792  2.569792 C.3	1 RES1 0.0
36 N4	0.083037  -0.825591  2.937154 N.3	1 RES1 0.0
37 C24	-1.074544  -1.474468  2.861975 C.3	1 RES1 0.0
38 H9	-1.111738  -2.42015  -1.822084 H	1 RES1 0.0
39 H10	0.916178  -1.819963  -0.483347 H	1 RES1 0.0
40 H11	-3.159234  -3.194724  -0.634264 H	1 RES1 0.0
41 H12	-4.452899  -2.888835  1.586668 H	1 RES1 0.0
42 H13	-4.452939  -1.156846  3.318479 H	1 RES1 0.0
43 H14	-3.159313  1.064158  3.624182 H	1 RES1 0.0
44 H15	-1.111779  2.251902  2.849619 H	1 RES1 0.0
45 H16	0.916205  0.9131  2.249781 H	1 RES1 0.0
46 C25	-2.499249  -1.122364  0.740254 C.3	1 RES1 0.0
47 C26	-2.14  0.0  0.0 C.3	1 RES1 0.0
48 N5	-2.506693  0.083347  -1.255504 N.3	1 RES1 0.0
49 C27	-2.431887  -1.07433  -1.904246 C.3	1 RES1 0.0
50 C28	-2.771229  -2.299579  -1.313359 C.3	1 RES1 0.0
51 C29	-2.956902  -2.263945  0.067736 C.3	1 RES1 0.0
52 C30	-2.549297  -3.503707  -1.994264 C.2	1 RES1 0.0
53 C31	-1.564433  -3.503721  -2.978988 C.2	1 RES1 0.0
54 C32	-0.88343  -2.299677  -3.200606 C.3	1 RES1 0.0
55 C33	0.497656  -2.264024  -3.386483 C.2	1 RES1 0.0
56 C34	1.170085  -1.122376  -2.92884 C.2	1 RES1 0.0
57 C35	0.429792  -0.0  -2.569792 C.3	1 RES1 0.0
58 N6	-0.825591  0.083037  -2.937154 N.3	1 RES1 0.0
59 C36	-1.474468  -1.074544  -2.861975 C.3	1 RES1 0.0
60 H17	-2.42015  -1.111738  1.822084 H	1 RES1 0.0
61 H18	-1.819963  0.916178  0.483347 H	1 RES1 0.0
62 H19	-3.194724  -3.159234  0.634264 H	1 RES1 0.0
63 H20	-2.888835  -4.452899  -1.586668 H	1 RES1 0.0
64 H21	-1.156846  -4.452939  -3.318479 H	1 RES1 0.0
65 H22	1.064158  -3.159313  -3.624182 H	1 RES1 0.0
66 H23	2.251902  -1.111779  -2.849619 H	1 RES1 0.0
67 H24	0.9131  0.916205  -2.249781 H	1 RES1 0.0
@<TRIPOS>BOND
1 1 3 1
1 1 13 1
1 1 25 1
1 1 35 1
1 1 47 1
1 1 57 1
1 2 3 1
1 2 7 2
1 2 16 1
1 3 4 1
1 3 17 1
1 4 5 1
1 5 6 2
1 5 15 1
1 6 7 1
1 6 8 1
1 7 18 1
1 8 9 2
1 8 19 1
1 9 10 1
1 9 20 1
1 10 11 1
1 10 15 2
1 11 12 2
1 11 21 1
1 12 13 1
1 12 22 1
1 13 14 1
1 13 23 1
1 14 15 1
1 24 25 1
1 24 29 1
1 24 38 1
1 24 50 1
1 25 26 1
1 25 39 1
1 26 27 1
1 27 28 1
1 27 37 1
1 28 29 1
1 28 30 1
1 28 46 1
1 28 51 1
1 28 62 1
1 29 40 1
1 29 50 1
1 29 51 1
1 29 62 1
1 30 31 2
1 30 41 1
1 31 32 1
1 31 42 1
1 32 33 1
1 32 37 1
1 33 34 2
1 33 43 1
1 34 35 1
1 34 44 1
1 35 36 1
1 35 45 1
1 36 37 1
1 40 50 1
1 40 51 1
1 46 47 1
1 46 51 1
1 46 60 1
1 47 48 1
1 47 61 1
1 48 49 1
1 49 50 1
1 49 59 1
1 50 51 1
1 50 52 1
1 51 62 1
1 52 53 2
1 52 63 1
1 53 54 1
1 53 64 1
1 54 55 1
1 54 59 1
1 55 56 2
1 55 65 1
1 56 57 1
1 56 66 1
1 57 58 1
1 57 67 1
1 58 59 1
@<TRIPOS>SUBSTRUCTURE
1 RES1 67

