@<TRIPOS>MOLECULE
/home/jovyan/shared-scratch-kabdelma-pvc/kabdelma/HER-metal-complex-ligands/Runs//ni_oct_2_2-mercaptopyridine_6_s_1/ni_oct_2_2-mercaptopyridine_6_s_1_conf_1
73	78	1
SMALL
PartialCharges
****
Generated from molSimplify

@<TRIPOS>ATOM
1 Ni1	0.0  0.0  0.0 Ni	1 RES1 0.0
2 S1	0.0  2.350322  0.0 S.3	1 RES1 0.0
3 C1	-0.0  4.047684  0.0 C.3	1 RES1 0.0
4 N1	1.189463  4.725095  -0.023648 N.pl3	1 RES1 0.0
5 C2	1.318305  6.074506  -0.083259 C.2	1 RES1 0.0
6 C3	0.213646  6.851479  -0.10146 C.2	1 RES1 0.0
7 C4	-1.044981  6.244049  -0.051969 C.2	1 RES1 0.0
8 C5	-1.157543  4.870207  0.015834 C.2	1 RES1 0.0
9 H1	2.04599  4.172021  0.00586 H	1 RES1 0.0
10 H2	2.290201  6.520898  -0.115687 H	1 RES1 0.0
11 H3	0.300346  7.916713  -0.153019 H	1 RES1 0.0
12 H4	-1.927435  6.848992  -0.066779 H	1 RES1 0.0
13 H5	-2.126265  4.4205  0.080956 H	1 RES1 0.0
14 S2	2.350322  -0.0  0.0 S.3	1 RES1 0.0
15 C6	4.047684  0.0  0.0 C.3	1 RES1 0.0
16 N2	4.725095  -1.125818  0.384599 N.pl3	1 RES1 0.0
17 C7	6.074506  -1.267277  0.372649 C.2	1 RES1 0.0
18 C8	6.851479  -0.235463  -0.02227 C.2	1 RES1 0.0
19 C9	6.244049  0.964187  -0.406239 C.2	1 RES1 0.0
20 C10	4.870207  1.09315  -0.381024 C.2	1 RES1 0.0
21 H6	4.172021  -1.920598  0.705277 H	1 RES1 0.0
22 H7	6.520898  -2.191652  0.674585 H	1 RES1 0.0
23 H8	7.916713  -0.334569  -0.041067 H	1 RES1 0.0
24 H9	6.848992  1.788357  -0.721974 H	1 RES1 0.0
25 H10	4.4205  2.025724  -0.651152 H	1 RES1 0.0
26 S3	-0.0  -2.350322  0.0 S.3	1 RES1 0.0
27 C11	-0.0  -4.047684  0.0 C.3	1 RES1 0.0
28 N3	-1.125818  -4.725095  0.384599 N.pl3	1 RES1 0.0
29 C12	-1.267277  -6.074506  0.372649 C.2	1 RES1 0.0
30 C13	-0.235463  -6.851479  -0.02227 C.2	1 RES1 0.0
31 C14	0.964187  -6.244049  -0.406239 C.2	1 RES1 0.0
32 C15	1.09315  -4.870207  -0.381024 C.2	1 RES1 0.0
33 H11	-1.920598  -4.172021  0.705277 H	1 RES1 0.0
34 H12	-2.191652  -6.520898  0.674585 H	1 RES1 0.0
35 H13	-0.334569  -7.916713  -0.041067 H	1 RES1 0.0
36 H14	1.788357  -6.848992  -0.721974 H	1 RES1 0.0
37 H15	2.025724  -4.4205  -0.651152 H	1 RES1 0.0
38 S4	-2.350322  0.0  0.0 S.3	1 RES1 0.0
39 C16	-4.047684  0.0  0.0 C.3	1 RES1 0.0
40 N4	-4.725095  0.976195  0.680018 N.pl3	1 RES1 0.0
41 C17	-6.074506  1.115469  0.707522 C.2	1 RES1 0.0
42 C18	-6.851479  0.23248  0.043495 C.2	1 RES1 0.0
43 C19	-6.244049  -0.814861  -0.656268 C.2	1 RES1 0.0
44 C20	-4.870207  -0.945779  -0.667577 C.2	1 RES1 0.0
45 H16	-4.172021  1.651796  1.207344 H	1 RES1 0.0
46 H17	-6.520898  1.920811  1.252554 H	1 RES1 0.0
47 H18	-7.916713  0.332928  0.052744 H	1 RES1 0.0
48 H19	-6.848992  -1.520076  -1.186943 H	1 RES1 0.0
49 H20	-4.4205  -1.767769  -1.184293 H	1 RES1 0.0
50 S5	0.0  0.0  2.410066 S.3	1 RES1 0.0
51 C21	0.0  0.0  4.107429 C.3	1 RES1 0.0
52 N5	1.136867  0.350592  4.78484 N.pl3	1 RES1 0.0
53 C22	1.244287  0.443407  6.134251 C.2	1 RES1 0.0
54 C23	0.177403  0.156419  6.911223 C.2	1 RES1 0.0
55 C24	-1.018825  -0.23808  6.303794 C.2	1 RES1 0.0
56 C25	-1.108337  -0.334283  4.929952 C.2	1 RES1 0.0
57 H21	1.968347  0.558318  4.231766 H	1 RES1 0.0
58 H22	2.169595  0.742471  6.580643 H	1 RES1 0.0
59 H23	0.246534  0.229878  7.976458 H	1 RES1 0.0
60 H24	-1.871176  -0.467081  6.908737 H	1 RES1 0.0
61 H25	-2.021583  -0.663898  4.480245 H	1 RES1 0.0
62 S6	0.0  -0.0  -2.285059 S.3	1 RES1 0.0
63 C26	0.0  0.0  -3.982422 C.3	1 RES1 0.0
64 N6	-0.71828  -0.948396  -4.659833 N.pl3	1 RES1 0.0
65 C27	-0.842238  -1.017593  -6.009244 C.2	1 RES1 0.0
66 C28	-0.207661  -0.113206  -6.786216 C.2	1 RES1 0.0
67 C29	0.572181  0.875954  -6.178787 C.2	1 RES1 0.0
68 C30	0.693197  0.927165  -4.804945 C.2	1 RES1 0.0
69 H26	-1.197862  -1.658685  -4.106759 H	1 RES1 0.0
70 H27	-1.439739  -1.784812  -6.455636 H	1 RES1 0.0
71 H28	-0.300334  -0.153043  -7.851451 H	1 RES1 0.0
72 H29	1.078892  1.59858  -6.78373 H	1 RES1 0.0
73 H30	1.315282  1.6726  -4.355238 H	1 RES1 0.0
@<TRIPOS>BOND
1 1 2 1
1 1 14 1
1 1 26 1
1 1 38 1
1 1 50 1
1 1 62 1
1 2 3 1
1 3 4 1
1 3 8 1
1 4 5 1
1 4 9 1
1 5 6 2
1 5 10 1
1 6 7 1
1 6 11 1
1 7 8 2
1 7 12 1
1 8 13 1
1 14 15 1
1 15 16 1
1 15 20 1
1 16 17 1
1 16 21 1
1 17 18 2
1 17 22 1
1 18 19 1
1 18 23 1
1 19 20 2
1 19 24 1
1 20 25 1
1 26 27 1
1 27 28 1
1 27 32 1
1 28 29 1
1 28 33 1
1 29 30 2
1 29 34 1
1 30 31 1
1 30 35 1
1 31 32 2
1 31 36 1
1 32 37 1
1 38 39 1
1 39 40 1
1 39 44 1
1 40 41 1
1 40 45 1
1 41 42 2
1 41 46 1
1 42 43 1
1 42 47 1
1 43 44 2
1 43 48 1
1 44 49 1
1 50 51 1
1 51 52 1
1 51 56 1
1 52 53 1
1 52 57 1
1 53 54 2
1 53 58 1
1 54 55 1
1 54 59 1
1 55 56 2
1 55 60 1
1 56 61 1
1 62 63 1
1 63 64 1
1 63 68 1
1 64 65 1
1 64 69 1
1 65 66 2
1 65 70 1
1 66 67 1
1 66 71 1
1 67 68 2
1 67 72 1
1 68 73 1
@<TRIPOS>SUBSTRUCTURE
1 RES1 73

