@<TRIPOS>MOLECULE
/Users/abdulahmed/Documents/GitHub/HER-metal-complex-ligands/Runs//o_phenylene_diamine_hydride/o_phenylene_diamine_hydride
31	32	3
SMALL
PartialCharges
****
Generated from molSimplify

@<TRIPOS>ATOM
1 Ni1	0.0  0.0  0.0 Ni	1 RES1 0.0
2 N1	0.0  2.14  -0.0 N.pl3	1 RES1 0.0
3 C1	1.295753  2.504393  0.032078 C.ar	1 RES1 0.0
4 C2	1.684809  3.854774  0.065691 C.ar	1 RES1 0.0
5 C3	3.029692  4.22784  0.098882 C.ar	1 RES1 0.0
6 C4	4.01147  3.246063  0.098874 C.ar	1 RES1 0.0
7 C5	3.638403  1.90118  0.065678 C.ar	1 RES1 0.0
8 C6	2.288022  1.512123  0.032075 C.ar	1 RES1 0.0
9 N2	1.92363  0.21637  0.0 N.pl3	1 RES1 0.0
10 H1	-0.564383  2.991336  0.005543 H	1 RES1 0.0
11 H2	0.916163  4.619136  0.065614 H	1 RES1 0.0
12 H3	3.294611  5.275378  0.124244 H	1 RES1 0.0
13 H4	5.059008  3.510983  0.124228 H	1 RES1 0.0
14 H5	4.402766  1.132535  0.06559 H	1 RES1 0.0
15 H6	2.774965  -0.348013  0.005545 H	1 RES1 0.0
16 N3	-0.0  -2.14  0.0 N.pl3	1 RES1 0.0
17 C7	0.032078  -2.504393  1.295753 C.ar	1 RES1 0.0
18 C8	0.065691  -3.854774  1.684809 C.ar	1 RES1 0.0
19 C9	0.098882  -4.22784  3.029692 C.ar	1 RES1 0.0
20 C10	0.098874  -3.246063  4.01147 C.ar	1 RES1 0.0
21 C11	0.065678  -1.90118  3.638403 C.ar	1 RES1 0.0
22 C12	0.032075  -1.512123  2.288022 C.ar	1 RES1 0.0
23 N4	-0.0  -0.21637  1.92363 N.pl3	1 RES1 0.0
24 H7	0.005543  -2.991336  -0.564383 H	1 RES1 0.0
25 H8	0.065614  -4.619136  0.916163 H	1 RES1 0.0
26 H9	0.124244  -5.275378  3.294611 H	1 RES1 0.0
27 H10	0.124228  -3.510983  5.059008 H	1 RES1 0.0
28 H11	0.06559  -1.132535  4.402766 H	1 RES1 0.0
29 H12	0.005545  0.348013  2.774965 H	1 RES1 0.0
30 H13	-1.58  0.0  0.0 H	2 RES2 0.0
31 H14	0.0  0.0  -1.58 H	3 RES3 0.0
@<TRIPOS>BOND
1 1 2 1
1 1 9 1
1 1 16 1
1 1 23 1
1 2 3 1
1 2 10 1
1 3 4 2
1 3 8 1
1 4 5 1
1 4 11 1
1 5 6 2
1 5 12 1
1 6 7 1
1 6 13 1
1 7 8 2
1 7 14 1
1 8 9 1
1 9 15 1
1 16 17 1
1 16 24 1
1 17 18 2
1 17 22 1
1 18 19 1
1 18 25 1
1 19 20 2
1 19 26 1
1 20 21 1
1 20 27 1
1 21 22 2
1 21 28 1
1 22 23 1
1 23 29 1
@<TRIPOS>SUBSTRUCTURE
1 RES1 29
2 RES2 1
3 RES3 1

