@<TRIPOS>MOLECULE
/home/jovyan/shared-scratch-kabdelma-pvc/kabdelma/HER-metal-complex-ligands/Runs//ni_tpl_2_N-N-dimethyl-p-toluidine_3_s_1/badjob_ni_tpl_2_N-N-dimethyl-p-toluidine_3_s_1_conf_1
70	86	1
SMALL
PartialCharges
****
Generated from molSimplify

@<TRIPOS>ATOM
1 Ni1	0.0  0.0  0.0 Ni	1 RES1 0.0
2 C1	0.782965  -0.375726  0.42212 C.3	1 RES1 0.0
3 N1	2.14  0.0  0.0 N.pl3	1 RES1 0.0
4 C2	2.834709  -0.788395  -1.027965 C.3	1 RES1 0.0
5 C3	2.802326  1.16412  0.605845 C.ar	1 RES1 0.0
6 C4	2.73189  1.311174  1.977033 C.ar	1 RES1 0.0
7 C5	3.295676  2.431238  2.563163 C.ar	1 RES1 0.0
8 C6	3.947295  3.402448  1.815778 C.ar	1 RES1 0.0
9 C7	4.522673  4.620986  2.47753 C.3	1 RES1 0.0
10 C8	4.006221  3.215522  0.430213 C.ar	1 RES1 0.0
11 C9	3.456041  2.119981  -0.172363 C.ar	1 RES1 0.0
12 H1	0.46654  -1.240501  -0.1228 H	1 RES1 0.0
13 H2	0.111614  0.434257  0.226887 H	1 RES1 0.0
14 H3	0.782965  -0.59442  1.469533 H	1 RES1 0.0
15 H4	3.067643  -0.160291  -1.862308 H	1 RES1 0.0
16 H5	3.738992  -1.188969  -0.619661 H	1 RES1 0.0
17 H6	2.203165  -1.58979  -1.350173 H	1 RES1 0.0
18 H7	2.248268  0.569681  2.578031 H	1 RES1 0.0
19 H8	3.227104  2.55196  3.624118 H	1 RES1 0.0
20 H9	5.571424  4.676431  2.272718 H	1 RES1 0.0
21 H10	4.03821  5.495839  2.096968 H	1 RES1 0.0
22 H11	4.368474  4.559175  3.534555 H	1 RES1 0.0
23 H12	4.495599  3.950811  -0.173739 H	1 RES1 0.0
24 H13	3.525877  1.995877  -1.232845 H	1 RES1 0.0
25 C10	-0.43446  0.676598  0.610225 C.3	1 RES1 0.0
26 N2	-1.07  1.853294  -0.0 N.pl3	1 RES1 0.0
27 C11	-2.025064  2.657848  0.775529 C.3	1 RES1 0.0
28 C12	-0.750477  2.225436  -1.385754 C.ar	1 RES1 0.0
29 C13	-0.717148  1.224348  -2.336255 C.ar	1 RES1 0.0
30 C14	-0.359035  1.541778  -3.635079 C.ar	1 RES1 0.0
31 C15	-0.05092  2.840439  -4.015848 C.ar	1 RES1 0.0
32 C16	0.362899  3.148008  -5.4258 C.3	1 RES1 0.0
33 C17	-0.103505  3.829829  -3.027646 C.ar	1 RES1 0.0
34 C18	-0.452077  3.541896  -1.738616 C.ar	1 RES1 0.0
35 H14	-0.785269  0.562425  1.614614 H	1 RES1 0.0
36 H15	0.627473  0.807607  0.616059 H	1 RES1 0.0
37 H16	-0.682979  -0.196747  0.04418 H	1 RES1 0.0
38 H17	-1.664173  3.662072  0.854219 H	1 RES1 0.0
39 H18	-2.974625  2.657715  0.282341 H	1 RES1 0.0
40 H19	-2.131579  2.239383  1.75453 H	1 RES1 0.0
41 H20	-0.964682  0.217352  -2.072464 H	1 RES1 0.0
42 H21	-0.318525  0.76273  -4.367434 H	1 RES1 0.0
43 H22	-0.306899  3.869649  -5.844734 H	1 RES1 0.0
44 H23	1.357885  3.541582  -5.427687 H	1 RES1 0.0
45 H24	0.332654  2.252007  -6.009895 H	1 RES1 0.0
46 H25	0.135861  4.839469  -3.288861 H	1 RES1 0.0
47 H26	-0.495923  4.319852  -1.005293 H	1 RES1 0.0
48 C19	-0.55423  -0.769371  0.848523 C.3	1 RES1 0.0
49 N3	-1.07  -1.853294  0.0 N.pl3	1 RES1 0.0
50 C20	-0.844302  -1.820663  -1.452204 C.3	1 RES1 0.0
51 C21	-1.811469  -2.969849  0.60368 C.ar	1 RES1 0.0
52 C22	-2.778494  -2.674737  1.544165 C.ar	1 RES1 0.0
53 C23	-3.446712  -3.712734  2.170263 C.ar	1 RES1 0.0
54 C24	-3.187715  -5.042198  1.867135 C.ar	1 RES1 0.0
55 C25	-3.908184  -6.14642  2.585068 C.3	1 RES1 0.0
56 C26	-2.207325  -5.302669  0.903188 C.ar	1 RES1 0.0
57 C27	-1.532547  -4.296192  0.272566 C.ar	1 RES1 0.0
58 H27	-0.045884  -0.051056  0.239829 H	1 RES1 0.0
59 H28	0.127085  -1.173112  1.568039 H	1 RES1 0.0
60 H29	-1.368466  -0.294965  1.355335 H	1 RES1 0.0
61 H30	-0.290833  -2.68775  -1.746708 H	1 RES1 0.0
62 H31	-1.786384  -1.8096  -1.95941 H	1 RES1 0.0
63 H32	-0.291405  -0.940885  -1.707538 H	1 RES1 0.0
64 H33	-3.008065  -1.657916  1.785564 H	1 RES1 0.0
65 H34	-4.184976  -3.483374  2.910033 H	1 RES1 0.0
66 H35	-4.42693  -6.755067  1.874187 H	1 RES1 0.0
67 H36	-3.200673  -6.745893  3.118884 H	1 RES1 0.0
68 H37	-4.610451  -5.725311  3.273828 H	1 RES1 0.0
69 H38	-1.980028  -6.317938  0.653259 H	1 RES1 0.0
70 H39	-0.795874  -4.52322  -0.469505 H	1 RES1 0.0
@<TRIPOS>BOND
1 1 2 1
1 1 3 1
1 1 25 1
1 1 26 1
1 1 48 1
1 1 49 1
1 2 3 1
1 2 12 1
1 2 13 1
1 2 14 1
1 2 25 1
1 2 36 1
1 2 48 1
1 2 58 1
1 3 4 1
1 3 5 1
1 4 15 1
1 4 16 1
1 4 17 1
1 5 6 2
1 5 11 1
1 6 7 1
1 6 18 1
1 7 8 2
1 7 19 1
1 8 9 1
1 8 10 1
1 9 20 1
1 9 21 1
1 9 22 1
1 10 11 2
1 10 23 1
1 11 24 1
1 13 25 1
1 13 36 1
1 13 58 1
1 25 26 1
1 25 35 1
1 25 36 1
1 25 37 1
1 25 48 1
1 25 58 1
1 26 27 1
1 26 28 1
1 27 38 1
1 27 39 1
1 27 40 1
1 28 29 2
1 28 34 1
1 29 30 1
1 29 41 1
1 30 31 2
1 30 42 1
1 31 32 1
1 31 33 1
1 32 43 1
1 32 44 1
1 32 45 1
1 33 34 2
1 33 46 1
1 34 47 1
1 37 48 1
1 37 58 1
1 48 49 1
1 48 58 1
1 48 59 1
1 48 60 1
1 49 50 1
1 49 51 1
1 50 61 1
1 50 62 1
1 50 63 1
1 51 52 2
1 51 57 1
1 52 53 1
1 52 64 1
1 53 54 2
1 53 65 1
1 54 55 1
1 54 56 1
1 55 66 1
1 55 67 1
1 55 68 1
1 56 57 2
1 56 69 1
1 57 70 1
@<TRIPOS>SUBSTRUCTURE
1 RES1 70

