@<TRIPOS>MOLECULE
/home/jovyan/shared-scratch-kabdelma-pvc/kabdelma/HER-metal-complex-ligands/Runs//ni_thd_2_triphenylphosphine_4_s_1/ni_thd_2_triphenylphosphine_4_s_1_conf_1
137	151	1
SMALL
PartialCharges
****
Generated from molSimplify

@<TRIPOS>ATOM
1 Ni1	0.0  0.0  0.0 Ni	1 RES1 0.0
2 C1	3.987653  1.465671  3.985479 C.ar	1 RES1 0.0
3 C2	3.25071  2.348704  3.213642 C.ar	1 RES1 0.0
4 C3	2.582827  1.739242  2.125277 C.ar	1 RES1 0.0
5 C4	2.880004  0.549339  1.635549 C.ar	1 RES1 0.0
6 C5	3.667959  -0.250097  2.41624 C.ar	1 RES1 0.0
7 C6	4.249842  0.234495  3.562746 C.ar	1 RES1 0.0
8 P1	2.27  0.0  0.0 P.3	1 RES1 0.0
9 C7	2.879996  1.141758  -1.29352 C.ar	1 RES1 0.0
10 C8	1.917617  1.885532  -1.956236 C.ar	1 RES1 0.0
11 C9	2.418395  2.620591  -3.056672 C.ar	1 RES1 0.0
12 C10	3.694585  2.896658  -3.254513 C.ar	1 RES1 0.0
13 C11	4.593888  2.175037  -2.519687 C.ar	1 RES1 0.0
14 C12	4.174663  1.337033  -1.514753 C.ar	1 RES1 0.0
15 C13	2.880004  -1.691098  -0.34203 C.ar	1 RES1 0.0
16 C14	3.675711  -1.905936  -1.45525 C.ar	1 RES1 0.0
17 C15	3.845036  -3.271712  -1.783938 C.ar	1 RES1 0.0
18 C16	3.606453  -4.275567  -0.959698 C.ar	1 RES1 0.0
19 C17	2.872788  -3.984509  0.156757 C.ar	1 RES1 0.0
20 C18	2.556029  -2.68606  0.475485 C.ar	1 RES1 0.0
21 H1	4.352572  1.781594  4.940428 H	1 RES1 0.0
22 H2	3.191832  3.396653  3.421577 H	1 RES1 0.0
23 H3	1.781234  2.280063  1.667171 H	1 RES1 0.0
24 H4	3.833844  -1.267735  2.130239 H	1 RES1 0.0
25 H5	4.920332  -0.38584  4.119996 H	1 RES1 0.0
26 H6	0.888825  1.902673  -1.662649 H	1 RES1 0.0
27 H7	1.714103  2.977607  -3.778762 H	1 RES1 0.0
28 H8	4.007965  3.644817  -3.952331 H	1 RES1 0.0
29 H9	5.639171  2.264187  -2.730248 H	1 RES1 0.0
30 H10	4.897999  0.837262  -0.904905 H	1 RES1 0.0
31 H11	4.121867  -1.11118  -2.015792 H	1 RES1 0.0
32 H12	4.190409  -3.507586  -2.768814 H	1 RES1 0.0
33 H13	3.967855  -5.263552  -1.155077 H	1 RES1 0.0
34 H14	2.540533  -4.779332  0.791393 H	1 RES1 0.0
35 H15	2.043648  -2.474726  1.390746 H	1 RES1 0.0
36 C19	-5.095952  2.427763  1.439047 C.ar	1 RES1 0.0
37 C20	-4.827984  1.740858  0.266477 C.ar	1 RES1 0.0
38 C21	-3.449947  1.519698  0.033765 C.ar	1 RES1 0.0
39 C22	-2.474211  2.179903  0.630492 C.ar	1 RES1 0.0
40 C23	-2.816239  2.894729  1.744715 C.ar	1 RES1 0.0
41 C24	-4.131925  3.046716  2.110455 C.ar	1 RES1 0.0
42 P2	-0.756713  2.14016  0.0 P.3	1 RES1 0.0
43 C25	-0.71777  2.800932  -1.706096 C.ar	1 RES1 0.0
44 C26	-0.369068  1.903461  -2.701845 C.ar	1 RES1 0.0
45 C27	-0.1867  2.499101  -3.972281 C.ar	1 RES1 0.0
46 C28	-0.636539  3.693663  -4.310929 C.ar	1 RES1 0.0
47 C29	-1.029719  4.508505  -3.285799 C.ar	1 RES1 0.0
48 C30	-1.107912  4.0362  -1.997891 C.ar	1 RES1 0.0
49 C31	0.311805  3.164976  1.075604 C.ar	1 RES1 0.0
50 C32	0.980749  4.245481  0.524616 C.ar	1 RES1 0.0
51 C33	1.989381  4.781708  1.359584 C.ar	1 RES1 0.0
52 C34	2.081982  4.561392  2.658392 C.ar	1 RES1 0.0
53 C35	1.343829  3.522223  3.153073 C.ar	1 RES1 0.0
54 C36	0.43234  2.863964  2.363277 C.ar	1 RES1 0.0
55 H16	-6.098746  2.460255  1.810866 H	1 RES1 0.0
56 H17	-5.593612  1.407699  -0.40264 H	1 RES1 0.0
57 H18	-3.179625  0.765054  -0.674993 H	1 RES1 0.0
58 H19	-2.04827  3.342214  2.340432 H	1 RES1 0.0
59 H20	-4.38196  3.669477  2.943853 H	1 RES1 0.0
60 H21	-0.248541  0.85487  -2.526262 H	1 RES1 0.0
61 H22	0.353232  1.94299  -4.709921 H	1 RES1 0.0
62 H23	-0.690422  4.007003  -5.332602 H	1 RES1 0.0
63 H24	-1.280122  5.528667  -3.489437 H	1 RES1 0.0
64 H25	-1.486616  4.669518  -1.223041 H	1 RES1 0.0
65 H26	0.755221  4.638963  -0.444513 H	1 RES1 0.0
66 H27	2.728499  5.40937  0.907207 H	1 RES1 0.0
67 H28	2.701356  5.163716  3.289646 H	1 RES1 0.0
68 H29	1.477915  3.21722  4.169879 H	1 RES1 0.0
69 H30	-0.185957  2.101882  2.789705 H	1 RES1 0.0
70 C37	1.339796  -5.092647  2.490684 C.ar	1 RES1 0.0
71 C38	0.552117  -4.924026  1.363877 C.ar	1 RES1 0.0
72 C39	0.138469  -3.588195  1.148236 C.ar	1 RES1 0.0
73 C40	0.158352  -2.640326  2.067565 C.ar	1 RES1 0.0
74 C41	0.899398  -2.89528  3.187966 C.ar	1 RES1 0.0
75 C42	1.44538  -4.137049  3.406612 C.ar	1 RES1 0.0
76 P3	-0.756711  -1.070067  1.853441 P.3	1 RES1 0.0
77 C43	-2.542186  -1.425123  1.666582 C.3	1 RES1 0.0
78 C44	-3.102242  -1.115061  0.438265 C.3	1 RES1 0.0
79 C45	-4.510576  -1.246373  0.400794 C.3	1 RES1 0.0
80 C46	-5.222875  -1.927919  1.27951 C.2	1 RES1 0.0
81 C47	-4.591568  -2.263381  2.445 C.2	1 RES1 0.0
82 C48	-3.244361  -2.046968  2.606529 C.3	1 RES1 0.0
83 C49	-0.496337  -0.007408  3.320363 C.ar	1 RES1 0.0
84 C50	-1.593221  0.381373  4.071535 C.ar	1 RES1 0.0
85 C51	-1.31882  1.421067  4.991204 C.ar	1 RES1 0.0
86 C52	-0.10885  1.766224  5.392272 C.ar	1 RES1 0.0
87 C53	0.936312  1.294086  4.647845 C.ar	1 RES1 0.0
88 C54	0.732565  0.375623  3.646443 C.ar	1 RES1 0.0
89 H31	1.873289  -6.010293  2.625634 H	1 RES1 0.0
90 H32	0.28104  -5.730754  0.715335 H	1 RES1 0.0
91 H33	-0.215032  -3.327908  0.172435 H	1 RES1 0.0
92 H34	1.056401  -2.116574  3.904812 H	1 RES1 0.0
93 H35	1.96031  -4.335851  4.32325 H	1 RES1 0.0
94 H36	-2.522477  -0.804422  -0.405699 H	1 RES1 0.0
95 H37	-5.034921  -0.759613  -0.394836 H	1 RES1 0.0
96 H38	-6.239372  -2.202817  1.089602 H	1 RES1 0.0
97 H39	-5.154756  -2.700729  3.242776 H	1 RES1 0.0
98 H40	-2.756621  -2.382564  3.497812 H	1 RES1 0.0
99 H41	-2.560325  -0.064113  3.965924 H	1 RES1 0.0
100 H42	-2.149433  1.965507  5.38941 H	1 RES1 0.0
101 H43	0.045293  2.382231  6.253477 H	1 RES1 0.0
102 H44	1.927156  1.644899  4.84799 H	1 RES1 0.0
103 H45	1.571759  -0.0347  3.12463 H	1 RES1 0.0
104 C55	-2.710721  1.816136  -4.825688 C.ar	1 RES1 0.0
105 C56	-3.297664  1.642371  -3.583162 C.ar	1 RES1 0.0
106 C57	-2.500534  0.913033  -2.669544 C.ar	1 RES1 0.0
107 C58	-1.477807  0.150396  -3.010762 C.ar	1 RES1 0.0
108 C59	-0.986682  0.321722  -4.275236 C.ar	1 RES1 0.0
109 C60	-1.637411  1.121127  -5.18375 C.ar	1 RES1 0.0
110 P4	-0.756711  -1.070067  -1.853441 P.3	1 RES1 0.0
111 C61	-2.036641  -2.287407  -1.37515 C.2	1 RES1 0.0
112 C62	-2.417129  -2.283627  -0.043317 C.3	1 RES1 0.0
113 C63	-3.277195  -3.350095  0.310214 C.3	1 RES1 0.0
114 C64	-3.962914  -4.076977  -0.55318 C.2	1 RES1 0.0
115 C65	-3.582277  -3.984883  -1.863174 C.2	1 RES1 0.0
116 C66	-2.652351  -3.056732  -2.265253 C.2	1 RES1 0.0
117 C67	0.634277  -1.935845  -2.668598 C.ar	1 RES1 0.0
118 C68	0.57146  -3.310827  -2.82366 C.ar	1 RES1 0.0
119 C69	1.802638  -3.903064  -3.191775 C.ar	1 RES1 0.0
120 C70	2.828692  -3.244209  -3.698865 C.ar	1 RES1 0.0
121 C71	2.798967  -1.882961  -3.574079 C.ar	1 RES1 0.0
122 C72	1.680413  -1.241079  -3.100036 C.ar	1 RES1 0.0
123 H46	-3.130121  2.523797  -5.509952 H	1 RES1 0.0
124 H47	-4.266023  2.024966  -3.336583 H	1 RES1 0.0
125 H48	-2.743255  0.984368  -1.629881 H	1 RES1 0.0
126 H49	-0.082579  -0.173866  -4.561401 H	1 RES1 0.0
127 H50	-1.276009  1.184193  -6.188893 H	1 RES1 0.0
128 H51	-2.090309  -1.541551  0.654832 H	1 RES1 0.0
129 H52	-3.379087  -3.583893  1.349375 H	1 RES1 0.0
130 H53	-4.772818  -4.704251  -0.244177 H	1 RES1 0.0
131 H54	-4.014798  -4.645104  -2.585623 H	1 RES1 0.0
132 H55	-2.422228  -2.952921  -3.305044 H	1 RES1 0.0
133 H56	-0.326623  -3.874037  -2.678261 H	1 RES1 0.0
134 H57	1.909786  -4.958121  -3.049389 H	1 RES1 0.0
135 H58	3.639672  -3.748538  -4.181424 H	1 RES1 0.0
136 H59	3.659152  -1.309288  -3.849545 H	1 RES1 0.0
137 H60	1.652065  -0.171675  -3.078336 H	1 RES1 0.0
@<TRIPOS>BOND
1 1 8 1
1 1 42 1
1 1 76 1
1 1 110 1
1 2 3 2
1 2 7 1
1 2 21 1
1 3 4 1
1 3 22 1
1 4 5 2
1 4 23 1
1 5 6 1
1 5 8 1
1 6 7 2
1 6 24 1
1 7 25 1
1 8 9 1
1 8 15 1
1 9 10 2
1 9 14 1
1 10 11 1
1 10 26 1
1 11 12 2
1 11 27 1
1 12 13 1
1 12 28 1
1 13 14 2
1 13 29 1
1 14 30 1
1 15 16 2
1 15 20 1
1 16 17 1
1 16 31 1
1 17 18 2
1 17 32 1
1 18 19 1
1 18 33 1
1 19 20 2
1 19 34 1
1 20 35 1
1 36 37 2
1 36 41 1
1 36 55 1
1 37 38 1
1 37 56 1
1 38 39 2
1 38 57 1
1 39 40 1
1 39 42 1
1 40 41 2
1 40 58 1
1 41 59 1
1 42 43 1
1 42 49 1
1 43 44 2
1 43 48 1
1 44 45 1
1 44 60 1
1 45 46 2
1 45 61 1
1 46 47 1
1 46 62 1
1 47 48 2
1 47 63 1
1 48 64 1
1 49 50 2
1 49 54 1
1 50 51 1
1 50 65 1
1 51 52 2
1 51 66 1
1 52 53 1
1 52 67 1
1 53 54 2
1 53 68 1
1 54 69 1
1 70 71 2
1 70 75 1
1 70 89 1
1 71 72 1
1 71 90 1
1 72 73 2
1 72 91 1
1 73 74 1
1 73 76 1
1 74 75 2
1 74 92 1
1 75 93 1
1 76 77 1
1 76 83 1
1 77 78 1
1 77 82 1
1 77 128 1
1 78 79 1
1 78 94 1
1 78 112 1
1 78 128 1
1 79 80 1
1 79 95 1
1 80 81 2
1 80 96 1
1 81 82 1
1 81 97 1
1 82 98 1
1 83 84 2
1 83 88 1
1 84 85 1
1 84 99 1
1 85 86 2
1 85 100 1
1 86 87 1
1 86 101 1
1 87 88 2
1 87 102 1
1 88 103 1
1 104 105 2
1 104 109 1
1 104 123 1
1 105 106 1
1 105 124 1
1 106 107 2
1 106 125 1
1 107 108 1
1 107 110 1
1 108 109 2
1 108 126 1
1 109 127 1
1 110 111 1
1 110 117 1
1 111 112 1
1 111 116 2
1 112 113 1
1 112 128 1
1 113 114 1
1 113 129 1
1 114 115 2
1 114 130 1
1 115 116 1
1 115 131 1
1 116 132 1
1 117 118 2
1 117 122 1
1 118 119 1
1 118 133 1
1 119 120 2
1 119 134 1
1 120 121 1
1 120 135 1
1 121 122 2
1 121 136 1
1 122 137 1
@<TRIPOS>SUBSTRUCTURE
1 RES1 137

