@<TRIPOS>MOLECULE
/Users/abdulahmed/Documents/GitHub/HER-metal-complex-ligands/Runs//2_bromoethylamine_hydrobromide/2_bromoethylamine_hydrobromide
55	54	1
SMALL
PartialCharges
****
Generated from molSimplify

@<TRIPOS>ATOM
1 Ni1	0.0  0.0  0.0 Ni	1 RES1 0.0
2 N1	0.0  2.14  -0.0 N.3	1 RES1 0.0
3 C1	-0.941631  3.259482  0.144882 C.3	1 RES1 0.0
4 C2	-0.538119  4.109727  1.338474 C.3	1 RES1 0.0
5 Br1	1.27129  4.809822  1.060072 Br	1 RES1 0.0
6 H1	0.941631  2.504334  -0.144882 H	1 RES1 0.0
7 H2	-0.923299  3.858008  -0.741871 H	1 RES1 0.0
8 H3	-1.929421  2.877288  0.296866 H	1 RES1 0.0
9 H4	-1.223526  4.924587  1.443932 H	1 RES1 0.0
10 H5	-0.556452  3.5112  2.225226 H	1 RES1 0.0
11 N2	2.14  0.0  0.0 N.3	1 RES1 0.0
12 C3	3.259482  0.282565  0.909845 C.3	1 RES1 0.0
13 C4	4.109727  -0.967116  1.070406 C.3	1 RES1 0.0
14 Br2	4.809822  -1.510083  -0.677923 Br	1 RES1 0.0
15 H6	2.504334  -0.282565  -0.909845 H	1 RES1 0.0
16 H7	3.858008  1.071536  0.504641 H	1 RES1 0.0
17 H8	2.877288  0.578981  1.86429 H	1 RES1 0.0
18 H9	4.924587  -0.761439  1.732676 H	1 RES1 0.0
19 H10	3.5112  -1.756087  1.475611 H	1 RES1 0.0
20 N3	0.0  -2.14  0.0 N.3	1 RES1 0.0
21 C5	0.345344  -3.259482  0.887918 C.3	1 RES1 0.0
22 C6	-0.890093  -4.109727  1.135262 C.3	1 RES1 0.0
23 Br3	-1.553694  -4.809822  -0.570933 Br	1 RES1 0.0
24 H11	-0.345344  -2.504334  -0.887918 H	1 RES1 0.0
25 H12	1.104128  -3.858008  0.428665 H	1 RES1 0.0
26 H13	0.707617  -2.877288  1.819361 H	1 RES1 0.0
27 H14	-0.638719  -4.924587  1.78157 H	1 RES1 0.0
28 H15	-1.648876  -3.5112  1.594515 H	1 RES1 0.0
29 N4	-2.14  0.0  0.0 N.3	1 RES1 0.0
30 C7	-3.259482  -0.218409  0.927339 C.3	1 RES1 0.0
31 C8	-4.109727  1.039428  1.000336 C.3	1 RES1 0.0
32 Br4	-4.809822  1.459115  -0.781609 Br	1 RES1 0.0
33 H16	-2.504334  0.218409  -0.927339 H	1 RES1 0.0
34 H17	-3.858008  -1.033724  0.578158 H	1 RES1 0.0
35 H18	-2.877288  -0.447524  1.900136 H	1 RES1 0.0
36 H19	-4.924587  0.88045  1.67534 H	1 RES1 0.0
37 H20	-3.5112  1.854743  1.349518 H	1 RES1 0.0
38 N5	0.0  0.0  2.14 N.3	1 RES1 0.0
39 C9	-0.406441  -0.861665  3.259482 C.3	1 RES1 0.0
40 C10	0.808733  -1.194586  4.109727 C.3	1 RES1 0.0
41 Br5	1.589736  0.461162  4.809822 Br	1 RES1 0.0
42 H21	0.406441  0.861665  2.504334 H	1 RES1 0.0
43 H22	-1.131341  -0.3506  3.858008 H	1 RES1 0.0
44 H23	-0.832805  -1.765568  2.877288 H	1 RES1 0.0
45 H24	0.512887  -1.821785  4.924587 H	1 RES1 0.0
46 H25	1.533632  -1.70565  3.5112 H	1 RES1 0.0
47 N6	0.0  0.0  -2.14 N.3	1 RES1 0.0
48 C11	0.494283  -0.81446  -3.259482 C.3	1 RES1 0.0
49 C12	-0.679434  -1.272577  -4.109727 C.3	1 RES1 0.0
50 Br6	-1.629231  0.292463  -4.809822 Br	1 RES1 0.0
51 H26	-0.494283  0.81446  -2.504334 H	1 RES1 0.0
52 H27	1.161791  -0.230422  -3.858008 H	1 RES1 0.0
53 H28	1.012795  -1.668844  -2.877288 H	1 RES1 0.0
54 H29	-0.319649  -1.865417  -4.924587 H	1 RES1 0.0
55 H30	-1.346941  -1.856615  -3.5112 H	1 RES1 0.0
@<TRIPOS>BOND
1 1 2 1
1 1 11 1
1 1 20 1
1 1 29 1
1 1 38 1
1 1 47 1
1 2 3 1
1 2 6 1
1 3 4 1
1 3 7 1
1 3 8 1
1 4 5 1
1 4 9 1
1 4 10 1
1 11 12 1
1 11 15 1
1 12 13 1
1 12 16 1
1 12 17 1
1 13 14 1
1 13 18 1
1 13 19 1
1 20 21 1
1 20 24 1
1 21 22 1
1 21 25 1
1 21 26 1
1 22 23 1
1 22 27 1
1 22 28 1
1 29 30 1
1 29 33 1
1 30 31 1
1 30 34 1
1 30 35 1
1 31 32 1
1 31 36 1
1 31 37 1
1 38 39 1
1 38 42 1
1 39 40 1
1 39 43 1
1 39 44 1
1 40 41 1
1 40 45 1
1 40 46 1
1 47 48 1
1 47 51 1
1 48 49 1
1 48 52 1
1 48 53 1
1 49 50 1
1 49 54 1
1 49 55 1
@<TRIPOS>SUBSTRUCTURE
1 RES1 55

