@<TRIPOS>MOLECULE
/Users/abdulahmed/Documents/GitHub/HER-metal-complex-ligands/Runs//ni_thd_2_4methoxyphenol_3_hydride_1_s_1/ni_thd_2_4methoxyphenol_3_hydride_1_s_1_conf_1
53	54	2
SMALL
PartialCharges
****
Generated from molSimplify

@<TRIPOS>ATOM
1 Ni1	0.0  0.0  0.0 Ni	1 RES1 0.0
2 C1	7.312038  1.844941  -2.913029 C.3	1 RES1 0.0
3 O1	5.970056  2.258279  -3.124297 O.3	1 RES1 0.0
4 C2	5.035107  1.699612  -2.322633 C.ar	1 RES1 0.0
5 C3	3.716166  1.955904  -2.612365 C.ar	1 RES1 0.0
6 C4	2.716521  1.3908  -1.844375 C.ar	1 RES1 0.0
7 C5	3.033964  0.586007  -0.777119 C.ar	1 RES1 0.0
8 O2	2.0  0.0  0.0 O.3	1 RES1 0.0
9 C6	4.352613  0.345982  -0.458815 C.ar	1 RES1 0.0
10 C7	5.389725  0.901877  -1.215125 C.ar	1 RES1 0.0
11 H1	7.601292  2.072319  -1.908274 H	1 RES1 0.0
12 H2	7.955599  2.360587  -3.59482 H	1 RES1 0.0
13 H3	7.390438  0.790459  -3.076796 H	1 RES1 0.0
14 H4	3.463449  2.593694  -3.433498 H	1 RES1 0.0
15 H5	1.690617  1.580713  -2.081763 H	1 RES1 0.0
16 H6	2.229523  -0.586007  0.777119 H	1 RES1 0.0
17 H7	4.587169  -0.275409  0.380087 H	1 RES1 0.0
18 H8	6.414863  0.72814  -0.962522 H	1 RES1 0.0
19 C8	-5.556959  5.79083  0.970532 C.3	1 RES1 0.0
20 O3	-5.408488  4.419928  1.309624 O.3	1 RES1 0.0
21 C9	-4.225106  3.846675  0.993568 C.ar	1 RES1 0.0
22 C10	-4.114614  2.486784  1.16007 C.ar	1 RES1 0.0
23 C11	-2.938511  1.842337  0.828544 C.ar	1 RES1 0.0
24 C12	-1.867956  2.557561  0.349103 C.ar	1 RES1 0.0
25 O4	-0.666707  1.885604  0.0 O.3	1 RES1 0.0
26 C13	-1.956685  3.924839  0.206112 C.ar	1 RES1 0.0
27 C14	-3.132299  4.609199  0.532006 C.ar	1 RES1 0.0
28 H9	-4.801884  6.364611  1.466049 H	1 RES1 0.0
29 H10	-6.523388  6.131727  1.278275 H	1 RES1 0.0
30 H11	-5.457483  5.909159  -0.088242 H	1 RES1 0.0
31 H12	-4.940288  1.926796  1.546818 H	1 RES1 0.0
32 H13	-2.861014  0.781593  0.945667 H	1 RES1 0.0
33 H14	0.113354  2.404864  -0.349103 H	1 RES1 0.0
34 H15	-1.113113  4.471893  -0.159974 H	1 RES1 0.0
35 H16	-3.199954  5.672609  0.434626 H	1 RES1 0.0
36 C15	-2.531077  -6.415251  4.218252 C.3	1 RES1 0.0
37 O5	-1.872016  -6.17192  2.984222 O.3	1 RES1 0.0
38 C16	-1.574409  -4.882583  2.705037 C.ar	1 RES1 0.0
39 C17	-1.087147  -4.601387  1.450948 C.ar	1 RES1 0.0
40 C18	-0.790758  -3.298586  1.099802 C.ar	1 RES1 0.0
41 C19	-0.96301  -2.280484  2.006055 C.ar	1 RES1 0.0
42 O6	-0.666706  -0.942791  1.632988 O.3	1 RES1 0.0
43 C20	-1.422398  -2.553816  3.275708 C.ar	1 RES1 0.0
44 C21	-1.732318  -3.86125  3.664543 C.ar	1 RES1 0.0
45 H17	-1.920093  -6.065365  5.023968 H	1 RES1 0.0
46 H18	-2.701982  -7.465555  4.330292 H	1 RES1 0.0
47 H19	-3.467773  -5.898189  4.230364 H	1 RES1 0.0
48 H20	-0.937259  -5.392276  0.746016 H	1 RES1 0.0
49 H21	-0.42547  -3.081505  0.117794 H	1 RES1 0.0
50 H22	-0.79159  -0.200699  2.29155 H	1 RES1 0.0
51 H23	-1.544046  -1.753471  3.975387 H	1 RES1 0.0
52 H24	-2.076685  -4.078531  4.654038 H	1 RES1 0.0
53 H25	-0.526698  -0.744805  -1.29006 H	2 RES2 0.0
@<TRIPOS>BOND
1 1 8 1
1 1 25 1
1 1 42 1
1 2 3 1
1 2 11 1
1 2 12 1
1 2 13 1
1 3 4 1
1 4 5 2
1 4 10 1
1 5 6 1
1 5 14 1
1 6 7 2
1 6 15 1
1 7 8 1
1 7 9 1
1 8 16 1
1 9 10 2
1 9 17 1
1 10 18 1
1 19 20 1
1 19 28 1
1 19 29 1
1 19 30 1
1 20 21 1
1 21 22 2
1 21 27 1
1 22 23 1
1 22 31 1
1 23 24 2
1 23 32 1
1 24 25 1
1 24 26 1
1 25 33 1
1 26 27 2
1 26 34 1
1 27 35 1
1 36 37 1
1 36 45 1
1 36 46 1
1 36 47 1
1 37 38 1
1 38 39 2
1 38 44 1
1 39 40 1
1 39 48 1
1 40 41 2
1 40 49 1
1 41 42 1
1 41 43 1
1 42 50 1
1 43 44 2
1 43 51 1
1 44 52 1
@<TRIPOS>SUBSTRUCTURE
1 RES1 52
2 RES2 1

