@<TRIPOS>MOLECULE
/Users/abdulahmed/Documents/GitHub/HER-metal-complex-ligands/Runs//8_mercaptoquinoline_hydrochloride_hydride/8_mercaptoquinoline_hydrochloride_hydride
37	40	3
SMALL
PartialCharges
****
Generated from molSimplify

@<TRIPOS>ATOM
1 Ni1	0.0  0.0  0.0 Ni	1 RES1 0.0
2 S1	0.0  2.23  0.0 S.3	1 RES1 0.0
3 C1	1.726398  2.417476  0.042463 C.2	1 RES1 0.0
4 C2	2.192241  3.740873  0.082162 C.2	1 RES1 0.0
5 C3	3.555855  4.005583  0.118289 C.2	1 RES1 0.0
6 C4	4.457623  2.948277  0.114838 C.3	1 RES1 0.0
7 C5	4.001592  1.618622  0.075218 C.2	1 RES1 0.0
8 C6	4.927358  0.563968  0.072358 C.2	1 RES1 0.0
9 C7	4.488553  -0.750999  0.033447 C.2	1 RES1 0.0
10 C8	3.129066  -0.968325  -0.001537 C.2	1 RES1 0.0
11 N1	2.212959  0.017041  0.0 N.pl3	1 RES1 0.0
12 C9	2.616428  1.317199  0.037798 C.2	1 RES1 0.0
13 H1	1.48817  4.57009  0.084938 H	1 RES1 0.0
14 H2	3.904768  5.032041  0.148805 H	1 RES1 0.0
15 H3	5.520939  3.166509  0.143271 H	1 RES1 0.0
16 H4	5.993641  0.766665  0.100513 H	1 RES1 0.0
17 H5	5.184296  -1.579556  0.0305 H	1 RES1 0.0
18 H6	2.714517  -1.970199  -0.032964 H	1 RES1 0.0
19 S2	0.0  -2.23  0.0 S.3	1 RES1 0.0
20 C10	0.042463  -2.417476  1.726398 C.2	1 RES1 0.0
21 C11	0.082162  -3.740873  2.192241 C.2	1 RES1 0.0
22 C12	0.118289  -4.005583  3.555855 C.2	1 RES1 0.0
23 C13	0.114838  -2.948277  4.457623 C.3	1 RES1 0.0
24 C14	0.075218  -1.618622  4.001592 C.2	1 RES1 0.0
25 C15	0.072358  -0.563968  4.927358 C.2	1 RES1 0.0
26 C16	0.033447  0.750999  4.488553 C.2	1 RES1 0.0
27 C17	-0.001537  0.968325  3.129066 C.2	1 RES1 0.0
28 N2	-0.0  -0.017041  2.212959 N.pl3	1 RES1 0.0
29 C18	0.037798  -1.317199  2.616428 C.2	1 RES1 0.0
30 H7	0.084938  -4.57009  1.48817 H	1 RES1 0.0
31 H8	0.148805  -5.032041  3.904768 H	1 RES1 0.0
32 H9	0.143271  -3.166509  5.520939 H	1 RES1 0.0
33 H10	0.100513  -0.766665  5.993641 H	1 RES1 0.0
34 H11	0.0305  1.579556  5.184296 H	1 RES1 0.0
35 H12	-0.032964  1.970199  2.714517 H	1 RES1 0.0
36 H13	-1.58  0.0  0.0 H	2 RES2 0.0
37 H14	0.0  0.0  -1.58 H	3 RES3 0.0
@<TRIPOS>BOND
1 1 2 1
1 1 11 1
1 1 19 1
1 1 28 1
1 2 3 1
1 3 4 1
1 3 12 2
1 4 5 2
1 4 13 1
1 5 6 1
1 5 14 1
1 6 7 1
1 6 15 1
1 7 8 2
1 7 12 1
1 8 9 1
1 8 16 1
1 9 10 2
1 9 17 1
1 10 11 1
1 10 18 1
1 11 12 1
1 19 20 1
1 20 21 1
1 20 29 2
1 21 22 2
1 21 30 1
1 22 23 1
1 22 31 1
1 23 24 1
1 23 32 1
1 24 25 2
1 24 29 1
1 25 26 1
1 25 33 1
1 26 27 2
1 26 34 1
1 27 28 1
1 27 35 1
1 28 29 1
@<TRIPOS>SUBSTRUCTURE
1 RES1 35
2 RES2 1
3 RES3 1

