@<TRIPOS>MOLECULE
/Users/abdulahmed/Documents/GitHub/HER-metal-complex-ligands/Runs//3_bromopyridine_2_1H__thione/3_bromopyridine_2_1H__thione
34	39	1
SMALL
PartialCharges
****
Generated from molSimplify

@<TRIPOS>ATOM
1 Ni1	0.0  0.0  0.0 Ni	1 RES1 0.0
2 S1	-0.0  2.23  0.0 S.3	1 RES1 0.0
3 C1	1.646156  1.782333  -0.003306 C.3	1 RES1 0.0
4 N1	1.787066  0.442934  0.0 N.pl3	1 RES1 0.0
5 C2	3.042232  -0.048385  -0.002107 C.2	1 RES1 0.0
6 C3	4.180335  0.738065  -0.007417 C.2	1 RES1 0.0
7 C4	4.015967  2.119174  -0.010773 C.2	1 RES1 0.0
8 C5	2.728042  2.665695  -0.008728 C.2	1 RES1 0.0
9 Br1	2.604392  4.564561  -0.013625 Br	1 RES1 0.0
10 H1	3.103824  -1.131119  0.00071 H	1 RES1 0.0
11 H2	5.164695  0.288911  -0.008893 H	1 RES1 0.0
12 H3	4.887578  2.764724  -0.014959 H	1 RES1 0.0
13 S2	0.0  -2.23  0.0 S.3	1 RES1 0.0
14 C6	-0.003306  -1.782333  1.646156 C.3	1 RES1 0.0
15 N2	0.0  -0.442934  1.787066 N.pl3	1 RES1 0.0
16 C7	-0.002107  0.048385  3.042232 C.2	1 RES1 0.0
17 C8	-0.007417  -0.738065  4.180335 C.2	1 RES1 0.0
18 C9	-0.010773  -2.119174  4.015967 C.2	1 RES1 0.0
19 C10	-0.008728  -2.665695  2.728042 C.2	1 RES1 0.0
20 Br2	-0.013625  -4.564561  2.604392 Br	1 RES1 0.0
21 H4	0.00071  1.131119  3.103824 H	1 RES1 0.0
22 H5	-0.008893  -0.288911  5.164695 H	1 RES1 0.0
23 H6	-0.014959  -2.764724  4.887578 H	1 RES1 0.0
24 S3	-2.23  0.0  0.0 S.3	1 RES1 0.0
25 C11	-1.782333  -0.003306  -1.646156 C.3	1 RES1 0.0
26 N3	-0.442934  0.0  -1.787066 N.pl3	1 RES1 0.0
27 C12	0.048385  -0.002107  -3.042232 C.2	1 RES1 0.0
28 C13	-0.738065  -0.007417  -4.180335 C.2	1 RES1 0.0
29 C14	-2.119174  -0.010773  -4.015967 C.2	1 RES1 0.0
30 C15	-2.665695  -0.008728  -2.728042 C.2	1 RES1 0.0
31 Br3	-4.564561  -0.013625  -2.604392 Br	1 RES1 0.0
32 H7	1.131119  0.00071  -3.103824 H	1 RES1 0.0
33 H8	-0.288911  -0.008893  -5.164695 H	1 RES1 0.0
34 H9	-2.764724  -0.014959  -4.887578 H	1 RES1 0.0
@<TRIPOS>BOND
1 1 2 1
1 1 4 1
1 1 13 1
1 1 15 1
1 1 24 1
1 1 26 1
1 2 3 1
1 3 4 1
1 3 8 1
1 4 5 1
1 5 6 2
1 5 10 1
1 6 7 1
1 6 11 1
1 7 8 2
1 7 12 1
1 8 9 1
1 13 14 1
1 14 15 1
1 14 19 1
1 15 16 1
1 16 17 2
1 16 21 1
1 17 18 1
1 17 22 1
1 18 19 2
1 18 23 1
1 19 20 1
1 24 25 1
1 25 26 1
1 25 30 1
1 26 27 1
1 27 28 2
1 27 32 1
1 28 29 1
1 28 33 1
1 29 30 2
1 29 34 1
1 30 31 1
@<TRIPOS>SUBSTRUCTURE
1 RES1 34

