@<TRIPOS>MOLECULE
/home/jovyan/shared-scratch-kabdelma-pvc/kabdelma/HER-metal-complex-ligands/Runs//ni_oct_2_2-Mercapto-6-methylpyridine_3_s_1/ni_oct_2_2-Mercapto-6-methylpyridine_3_s_1_conf_1
46	51	1
SMALL
PartialCharges
****
Generated from molSimplify

@<TRIPOS>ATOM
1 Ni1	0.0  0.0  0.0 Ni	1 RES1 0.0
2 C1	3.295882  -1.52134  0.002453 C.3	1 RES1 0.0
3 C2	3.114775  -0.032958  -0.010645 C.3	1 RES1 0.0
4 C3	4.225925  0.804886  -0.035125 C.2	1 RES1 0.0
5 C4	4.024732  2.180941  -0.048474 C.2	1 RES1 0.0
6 C5	2.72575  2.676483  -0.037691 C.2	1 RES1 0.0
7 C6	1.677464  1.770572  -0.013812 C.2	1 RES1 0.0
8 S1	0.0  2.282194  -0.0 S.3	1 RES1 0.0
9 N1	1.844533  0.437662  -0.0 N.pl3	1 RES1 0.0
10 H1	2.327694  -2.031455  0.032828 H	1 RES1 0.0
11 H2	3.824023  -1.845542  -0.899586 H	1 RES1 0.0
12 H3	3.868659  -1.82505  0.884168 H	1 RES1 0.0
13 H4	5.231447  0.396416  -0.043754 H	1 RES1 0.0
14 H5	4.87159  2.860789  -0.067436 H	1 RES1 0.0
15 H6	2.541995  3.745155  -0.048092 H	1 RES1 0.0
16 H7	-0.476234  1.030184  0.020163 H	1 RES1 0.0
17 C7	0.002453  1.52134  3.295882 C.3	1 RES1 0.0
18 C8	-0.010645  0.032958  3.114775 C.3	1 RES1 0.0
19 C9	-0.035125  -0.804886  4.225925 C.2	1 RES1 0.0
20 C10	-0.048474  -2.180941  4.024732 C.2	1 RES1 0.0
21 C11	-0.037691  -2.676483  2.72575 C.2	1 RES1 0.0
22 C12	-0.013812  -1.770572  1.677464 C.2	1 RES1 0.0
23 S2	-0.0  -2.282194  0.0 S.3	1 RES1 0.0
24 N2	-0.0  -0.437662  1.844533 N.pl3	1 RES1 0.0
25 H8	0.032828  2.031455  2.327694 H	1 RES1 0.0
26 H9	-0.899586  1.845542  3.824023 H	1 RES1 0.0
27 H10	0.884168  1.82505  3.868659 H	1 RES1 0.0
28 H11	-0.043754  -0.396416  5.231447 H	1 RES1 0.0
29 H12	-0.067436  -2.860789  4.87159 H	1 RES1 0.0
30 H13	-0.048092  -3.745155  2.541995 H	1 RES1 0.0
31 H14	0.020163  -1.030184  -0.476234 H	1 RES1 0.0
32 C13	1.52134  0.002453  -3.295882 C.3	1 RES1 0.0
33 C14	0.032958  -0.010645  -3.114775 C.3	1 RES1 0.0
34 C15	-0.804886  -0.035125  -4.225925 C.2	1 RES1 0.0
35 C16	-2.180941  -0.048474  -4.024732 C.2	1 RES1 0.0
36 C17	-2.676483  -0.037691  -2.72575 C.2	1 RES1 0.0
37 C18	-1.770572  -0.013812  -1.677464 C.2	1 RES1 0.0
38 S3	-2.282194  0.0  0.0 S.3	1 RES1 0.0
39 N3	-0.437662  0.0  -1.844533 N.pl3	1 RES1 0.0
40 H15	2.031455  0.032828  -2.327694 H	1 RES1 0.0
41 H16	1.845542  -0.899586  -3.824023 H	1 RES1 0.0
42 H17	1.82505  0.884168  -3.868659 H	1 RES1 0.0
43 H18	-0.396416  -0.043754  -5.231447 H	1 RES1 0.0
44 H19	-2.860789  -0.067436  -4.87159 H	1 RES1 0.0
45 H20	-3.745155  -0.048092  -2.541995 H	1 RES1 0.0
46 H21	-1.030184  0.020163  0.476234 H	1 RES1 0.0
@<TRIPOS>BOND
1 1 8 1
1 1 9 1
1 1 23 1
1 1 24 1
1 1 38 1
1 1 39 1
1 2 3 1
1 2 10 1
1 2 11 1
1 2 12 1
1 3 4 1
1 3 9 1
1 4 5 2
1 4 13 1
1 5 6 1
1 5 14 1
1 6 7 2
1 6 15 1
1 7 8 1
1 7 9 1
1 8 16 1
1 17 18 1
1 17 25 1
1 17 26 1
1 17 27 1
1 18 19 1
1 18 24 1
1 19 20 2
1 19 28 1
1 20 21 1
1 20 29 1
1 21 22 2
1 21 30 1
1 22 23 1
1 22 24 1
1 23 31 1
1 32 33 1
1 32 40 1
1 32 41 1
1 32 42 1
1 33 34 1
1 33 39 1
1 34 35 2
1 34 43 1
1 35 36 1
1 35 44 1
1 36 37 2
1 36 45 1
1 37 38 1
1 37 39 1
1 38 46 1
@<TRIPOS>SUBSTRUCTURE
1 RES1 46

