@<TRIPOS>MOLECULE
/Users/abdulahmed/Documents/GitHub/HER-metal-complex-ligands/Runs//ni_thd_2_aniline_4_s_1/ni_thd_2_aniline_4_s_1_conf_1
57	60	1
SMALL
PartialCharges
****
Generated from molSimplify

@<TRIPOS>ATOM
1 Ni1	0.0  0.0  0.0 Ni	1 RES1 0.0
2 N1	2.14  0.0  0.0 N.pl3	1 RES1 0.0
3 C1	3.488003  0.0  -0.0 C.ar	1 RES1 0.0
4 C2	4.205794  1.0834  0.527368 C.ar	1 RES1 0.0
5 C3	5.5888  1.083747  0.524257 C.ar	1 RES1 0.0
6 C4	6.280992  -0.007317  0.003267 C.ar	1 RES1 0.0
7 C5	5.582193  -1.095687  -0.525381 C.ar	1 RES1 0.0
8 C6	4.204234  -1.078332  -0.54033 C.ar	1 RES1 0.0
9 H1	1.63  0.794247  0.386616 H	1 RES1 0.0
10 H2	1.63  -0.794247  -0.386616 H	1 RES1 0.0
11 H3	3.677491  1.919016  0.936687 H	1 RES1 0.0
12 H4	6.125828  1.919874  0.920984 H	1 RES1 0.0
13 H5	7.350972  -0.011834  0.00798 H	1 RES1 0.0
14 H6	6.113918  -1.93787  -0.916399 H	1 RES1 0.0
15 H7	3.672117  -1.900667  -0.971046 H	1 RES1 0.0
16 N2	-0.713377  2.017596  0.0 N.pl3	1 RES1 0.0
17 C7	-1.162738  3.288496  -0.0 C.ar	1 RES1 0.0
18 C8	-0.585448  4.25395  0.837693 C.ar	1 RES1 0.0
19 C9	-1.049122  5.556916  0.839083 C.ar	1 RES1 0.0
20 C10	-2.093256  5.921921  -0.007993 C.ar	1 RES1 0.0
21 C11	-2.679614  4.973403  -0.849918 C.ar	1 RES1 0.0
22 C12	-2.227915  3.671557  -0.828497 C.ar	1 RES1 0.0
23 H8	0.055265  1.74843  0.614117 H	1 RES1 0.0
24 H9	-1.141997  1.325105  -0.614117 H	1 RES1 0.0
25 H10	0.222748  3.979356  1.482919 H	1 RES1 0.0
26 H11	-0.607049  6.282832  1.489096 H	1 RES1 0.0
27 H12	-2.447219  6.931661  -0.01385 H	1 RES1 0.0
28 H13	-3.474855  5.256208  -1.507575 H	1 RES1 0.0
29 H14	-2.69729  2.941197  -1.453926 H	1 RES1 0.0
30 N3	-0.713375  -1.008786  1.747297 N.pl3	1 RES1 0.0
31 C13	-1.162736  -1.644228  2.847933 C.ar	1 RES1 0.0
32 C14	-0.612272  -1.3721  4.108897 C.ar	1 RES1 0.0
33 C15	-1.071991  -2.026703  5.237112 C.ar	1 RES1 0.0
34 C16	-2.101323  -2.959007  5.126368 C.ar	1 RES1 0.0
35 C17	-2.662108  -3.241896  3.878236 C.ar	1 RES1 0.0
36 C18	-2.182566  -2.602929  2.75527 C.ar	1 RES1 0.0
37 H15	0.035599  -0.320819  1.825653 H	1 RES1 0.0
38 H16	-1.12233  -1.215929  0.836117 H	1 RES1 0.0
39 H17	0.172131  -0.649959  4.199032 H	1 RES1 0.0
40 H18	-0.638205  -1.817649  6.192636 H	1 RES1 0.0
41 H19	-2.463526  -3.459917  5.999751 H	1 RES1 0.0
42 H20	-3.459373  -3.950631  3.794783 H	1 RES1 0.0
43 H21	-2.59481  -2.841969  1.797243 H	1 RES1 0.0
44 N4	-0.713375  -1.008786  -1.747297 N.pl3	1 RES1 0.0
45 C19	-1.162736  -1.644228  -2.847933 C.ar	1 RES1 0.0
46 C20	-2.504103  -2.040881  -2.950398 C.ar	1 RES1 0.0
47 C21	-2.963497  -2.695369  -4.078811 C.ar	1 RES1 0.0
48 C22	-2.090483  -2.955175  -5.133006 C.ar	1 RES1 0.0
49 C23	-0.751082  -2.566329  -5.048491 C.ar	1 RES1 0.0
50 C24	-0.295211  -1.93573  -3.911028 C.ar	1 RES1 0.0
51 H22	-1.351313  -0.811106  -0.97635 H	1 RES1 0.0
52 H23	0.264582  -0.725642  -1.68542 H	1 RES1 0.0
53 H24	-3.179576  -1.834821  -2.146548 H	1 RES1 0.0
54 H25	-3.986841  -3.001425  -4.142034 H	1 RES1 0.0
55 H26	-2.446757  -3.453989  -6.01002 H	1 RES1 0.0
56 H27	-0.083095  -2.757083  -5.862313 H	1 RES1 0.0
57 H28	0.737129  -1.664096  -3.837621 H	1 RES1 0.0
@<TRIPOS>BOND
1 1 2 1
1 1 16 1
1 1 30 1
1 1 44 1
1 2 3 1
1 2 9 1
1 2 10 1
1 3 4 2
1 3 8 1
1 4 5 1
1 4 11 1
1 5 6 2
1 5 12 1
1 6 7 1
1 6 13 1
1 7 8 2
1 7 14 1
1 8 15 1
1 16 17 1
1 16 23 1
1 16 24 1
1 17 18 2
1 17 22 1
1 18 19 1
1 18 25 1
1 19 20 2
1 19 26 1
1 20 21 1
1 20 27 1
1 21 22 2
1 21 28 1
1 22 29 1
1 30 31 1
1 30 37 1
1 30 38 1
1 31 32 2
1 31 36 1
1 32 33 1
1 32 39 1
1 33 34 2
1 33 40 1
1 34 35 1
1 34 41 1
1 35 36 2
1 35 42 1
1 36 43 1
1 44 45 1
1 44 51 1
1 44 52 1
1 45 46 2
1 45 50 1
1 46 47 1
1 46 53 1
1 47 48 2
1 47 54 1
1 48 49 1
1 48 55 1
1 49 50 2
1 49 56 1
1 50 57 1
@<TRIPOS>SUBSTRUCTURE
1 RES1 57

