@<TRIPOS>MOLECULE
/Users/abdulahmed/Documents/GitHub/HER-metal-complex-ligands/Runs//2_aminobenzethiol_config1_H2/2_aminobenzethiol_config1_H2
44	45	3
SMALL
PartialCharges
****
Generated from molSimplify

@<TRIPOS>ATOM
1 Ni1	0.0  0.0  0.0 Ni	1 RES1 0.0
2 N1	0.0  2.14  0.0 N.pl3	1 RES1 0.0
3 C1	1.294626  2.535223  -0.04952 C.ar	1 RES1 0.0
4 C2	1.593508  3.91251  -0.098639 C.ar	1 RES1 0.0
5 C3	2.905779  4.394675  -0.151223 C.ar	1 RES1 0.0
6 C4	3.968499  3.501843  -0.156202 C.ar	1 RES1 0.0
7 C5	3.712043  2.132067  -0.108546 C.ar	1 RES1 0.0
8 C6	2.395142  1.644581  -0.05567 C.ar	1 RES1 0.0
9 S1	2.221737  -0.081737  -0.0 S.3	1 RES1 0.0
10 H1	-0.591631  2.973292  -0.007082 H	1 RES1 0.0
11 H2	0.773854  4.624504  -0.095484 H	1 RES1 0.0
12 H3	3.081297  5.46153  -0.18763 H	1 RES1 0.0
13 H4	4.989597  3.855711  -0.196494 H	1 RES1 0.0
14 H5	4.543123  1.434313  -0.112453 H	1 RES1 0.0
15 S2	0.0  -2.23  0.0 S.3	1 RES1 0.0
16 C7	-1.24136  -3.545448  -0.068721 C.ar	1 RES1 0.0
17 C8	-0.878229  -4.687505  -0.83555 C.ar	1 RES1 0.0
18 C9	-1.845297  -5.667812  -1.11183 C.ar	1 RES1 0.0
19 C10	-2.968759  -5.676458  -0.456611 C.ar	1 RES1 0.0
20 C11	-3.212099  -4.714824  0.533078 C.ar	1 RES1 0.0
21 C12	-2.392456  -3.562266  0.60546 C.ar	1 RES1 0.0
22 N2	-2.803397  -2.403005  1.410532 N.pl3	1 RES1 0.0
23 H6	1.24136  -2.781274  0.068721 H	1 RES1 0.0
24 H7	0.122239  -4.798524  -1.198369 H	1 RES1 0.0
25 H8	-1.657727  -6.407784  -1.861603 H	1 RES1 0.0
26 H9	-3.708152  -6.418834  -0.673581 H	1 RES1 0.0
27 H10	-4.012537  -4.850557  1.230053 H	1 RES1 0.0
28 H11	-2.206749  -1.577016  1.456925 H	1 RES1 0.0
29 S3	-2.23  0.0  0.0 S.3	1 RES1 0.0
30 C13	-3.545448  1.10941  0.561166 C.ar	1 RES1 0.0
31 C14	-4.687505  1.178344  -0.284493 C.ar	1 RES1 0.0
32 C15	-5.667812  2.153989  -0.040224 C.ar	1 RES1 0.0
33 C16	-5.676458  2.799326  1.088943 C.ar	1 RES1 0.0
34 C17	-4.714824  2.51522  2.067708 C.ar	1 RES1 0.0
35 C18	-3.562266  1.769198  1.720572 C.ar	1 RES1 0.0
36 N3	-2.403005  1.722547  2.623255 N.pl3	1 RES1 0.0
37 H12	-2.781274  -1.10941  -0.561166 H	1 RES1 0.0
38 H13	-4.798524  0.493323  -1.098938 H	1 RES1 0.0
39 H14	-6.407784  2.366435  -0.783332 H	1 RES1 0.0
40 H15	-6.418834  3.548145  1.270738 H	1 RES1 0.0
41 H16	-4.850557  2.859933  3.071526 H	1 RES1 0.0
42 H17	-1.577016  1.182638  2.365108 H	1 RES1 0.0
43 H18	0.0  0.0  1.58 H	2 RES2 0.0
44 H19	0.0  0.0  -1.58 H	3 RES3 0.0
@<TRIPOS>BOND
1 1 2 1
1 1 9 1
1 1 15 1
1 1 29 2
1 2 3 1
1 2 10 1
1 3 4 2
1 3 8 1
1 4 5 1
1 4 11 1
1 5 6 2
1 5 12 1
1 6 7 1
1 6 13 1
1 7 8 2
1 7 14 1
1 8 9 1
1 15 16 1
1 15 23 1
1 16 17 2
1 16 21 1
1 17 18 1
1 17 24 1
1 18 19 2
1 18 25 1
1 19 20 1
1 19 26 1
1 20 21 2
1 20 27 1
1 21 22 1
1 22 28 1
1 29 30 1
1 29 37 1
1 30 31 2
1 30 35 1
1 31 32 1
1 31 38 1
1 32 33 2
1 32 39 1
1 33 34 1
1 33 40 1
1 34 35 2
1 34 41 1
1 35 36 1
1 36 42 1
@<TRIPOS>SUBSTRUCTURE
1 RES1 42
2 RES2 1
3 RES3 1

