@<TRIPOS>MOLECULE
/Users/abdulahmed/Documents/GitHub/HER-metal-complex-ligands/Runs//ni_thd_2_triphenylmethanethiol_3_hydride_1_s_1/ni_thd_2_triphenylmethanethiol_3_hydride_1_s_1_conf_1
110	123	2
SMALL
PartialCharges
****
Generated from molSimplify

@<TRIPOS>ATOM
1 Ni1	0.0  0.0  0.0 Ni	1 RES1 0.0
2 S1	2.23  -0.0  0.0 S.3	1 RES1 0.0
3 C1	3.545448  1.232065  0.166468 C.3	1 RES1 0.0
4 C2	4.405856  0.894714  1.373237 C.ar	1 RES1 0.0
5 C3	5.476038  0.018962  1.29365 C.ar	1 RES1 0.0
6 C4	5.99343  -0.369841  2.551898 C.ar	1 RES1 0.0
7 C5	5.768908  0.271112  3.684499 C.ar	1 RES1 0.0
8 C6	4.741342  1.173072  3.679434 C.ar	1 RES1 0.0
9 C7	4.100202  1.507268  2.511039 C.ar	1 RES1 0.0
10 C8	4.405853  1.227066  -1.086559 C.ar	1 RES1 0.0
11 C9	3.791455  1.763761  -2.205951 C.ar	1 RES1 0.0
12 C10	4.543057  1.621104  -3.396243 C.ar	1 RES1 0.0
13 C11	5.835015  1.350758  -3.438349 C.ar	1 RES1 0.0
14 C12	6.397624  0.888568  -2.281067 C.ar	1 RES1 0.0
15 C13	5.68593  0.874542  -1.105827 C.ar	1 RES1 0.0
16 C14	2.929318  2.60908  0.352521 C.ar	1 RES1 0.0
17 C15	2.943755  3.196046  1.607044 C.ar	1 RES1 0.0
18 C16	2.097334  4.32406  1.721965 C.ar	1 RES1 0.0
19 C17	1.611826  5.003445  0.698864 C.ar	1 RES1 0.0
20 C18	1.688868  4.39805  -0.52466 C.ar	1 RES1 0.0
21 C19	2.387412  3.22657  -0.690687 C.ar	1 RES1 0.0
22 H1	2.781274  -1.232065  -0.166468 H	1 RES1 0.0
23 H2	5.875268  -0.331717  0.364919 H	1 RES1 0.0
24 H3	6.609446  -1.24397  2.588268 H	1 RES1 0.0
25 H4	6.359383  0.0941  4.559089 H	1 RES1 0.0
26 H5	4.432025  1.625176  4.598578 H	1 RES1 0.0
27 H6	3.347798  2.268016  2.518064 H	1 RES1 0.0
28 H7	2.835217  2.242777  -2.173501 H	1 RES1 0.0
29 H8	4.028889  1.740575  -4.326973 H	1 RES1 0.0
30 H9	6.410558  1.486133  -4.330159 H	1 RES1 0.0
31 H10	7.406654  0.532671  -2.290756 H	1 RES1 0.0
32 H11	6.167557  0.576856  -0.197907 H	1 RES1 0.0
33 H12	3.540817  2.82969  2.41587 H	1 RES1 0.0
34 H13	1.83219  4.649239  2.70627 H	1 RES1 0.0
35 H14	1.181318  5.975391  0.820857 H	1 RES1 0.0
36 H15	1.198111  4.842968  -1.364961 H	1 RES1 0.0
37 H16	2.495712  2.808065  -1.669474 H	1 RES1 0.0
38 S2	-0.743378  2.102448  0.0 S.3	1 RES1 0.0
39 C20	-2.294722  2.949182  -0.390481 C.3	1 RES1 0.0
40 C21	-2.79443  3.685104  0.842041 C.ar	1 RES1 0.0
41 C22	-2.376187  4.968094  1.154412 C.ar	1 RES1 0.0
42 C23	-2.739226  5.388512  2.455758 C.ar	1 RES1 0.0
43 C24	-3.675615  4.819283  3.192758 C.ar	1 RES1 0.0
44 C25	-4.095286  3.580989  2.792813 C.ar	1 RES1 0.0
45 C26	-3.681858  3.047132  1.596165 C.ar	1 RES1 0.0
46 C27	-2.059432  3.94498  -1.514503 C.ar	1 RES1 0.0
47 C28	-1.846766  3.368501  -2.755878 C.ar	1 RES1 0.0
48 C29	-1.484485  4.293796  -3.763168 C.ar	1 RES1 0.0
49 C30	-1.668675  5.599009  -3.682501 C.ar	1 RES1 0.0
50 C31	-1.942872  6.0988  -2.439732 C.ar	1 RES1 0.0
51 C32	-2.179464  5.260276  -1.377284 C.ar	1 RES1 0.0
52 C33	-3.333089  1.928529  -0.826901 C.ar	1 RES1 0.0
53 C34	-4.353779  1.582949  0.043347 C.ar	1 RES1 0.0
54 C35	-5.074979  0.430177  -0.347851 C.ar	1 RES1 0.0
55 C36	-5.065989  -0.081607  -1.565231 C.ar	1 RES1 0.0
56 C37	-4.07299  0.351211  -2.39954 C.ar	1 RES1 0.0
57 C38	-3.244539  1.385056  -2.03522 C.ar	1 RES1 0.0
58 H17	0.185687  3.015664  0.390481 H	1 RES1 0.0
59 H18	-1.828269  5.585275  0.473403 H	1 RES1 0.0
60 H19	-2.218885  6.225881  2.87164 H	1 RES1 0.0
61 H20	-4.08392  5.301213  4.056431 H	1 RES1 0.0
62 H21	-4.75516  3.019591  3.420744 H	1 RES1 0.0
63 H22	-4.078592  2.108804  1.268988 H	1 RES1 0.0
64 H23	-1.947323  2.318695  -2.936698 H	1 RES1 0.0
65 H24	-1.029656  3.909252  -4.652075 H	1 RES1 0.0
66 H25	-1.606666  6.231394  -4.543399 H	1 RES1 0.0
67 H26	-1.97365  7.158165  -2.292425 H	1 RES1 0.0
68 H27	-2.463001  5.67087  -0.430755 H	1 RES1 0.0
69 H28	-4.576652  2.137431  0.930915 H	1 RES1 0.0
70 H29	-5.668955  -0.061069  0.394287 H	1 RES1 0.0
71 H30	-5.796509  -0.79653  -1.881658 H	1 RES1 0.0
72 H31	-3.939118  -0.121985  -3.349836 H	1 RES1 0.0
73 H32	-2.521477  1.755585  -2.731488 H	1 RES1 0.0
74 S3	-0.743377  -1.051212  1.820781 S.3	1 RES1 0.0
75 C39	-1.188076  -2.746898  2.271327 C.3	1 RES1 0.0
76 C40	-0.303967  -3.215583  3.415479 C.ar	1 RES1 0.0
77 C41	-0.620148  -2.966593  4.740846 C.ar	1 RES1 0.0
78 C42	0.43312  -3.24535  5.643605 C.ar	1 RES1 0.0
79 C43	1.481324  -3.997739  5.362192 C.ar	1 RES1 0.0
80 C44	1.700827  -4.264514  4.039278 C.ar	1 RES1 0.0
81 C45	0.779864  -3.907515  3.084148 C.ar	1 RES1 0.0
82 C46	-2.644107  -2.790524  2.705461 C.ar	1 RES1 0.0
83 C47	-3.554795  -2.629093  1.674369 C.ar	1 RES1 0.0
84 C48	-4.897926  -2.524479  2.106924 C.ar	1 RES1 0.0
85 C49	-5.332455  -2.895898  3.297407 C.ar	1 RES1 0.0
86 C50	-4.3789  -3.105904  4.254527 C.ar	1 RES1 0.0
87 C51	-3.042572  -3.094293  3.935172 C.ar	1 RES1 0.0
88 C52	-0.989606  -3.658587  1.071397 C.ar	1 RES1 0.0
89 C53	0.099851  -4.513388  1.040364 C.ar	1 RES1 0.0
90 C54	0.34134  -5.088437  -0.229695 C.ar	1 RES1 0.0
91 C55	-0.54113  -5.134322  -1.211101 C.ar	1 RES1 0.0
92 C56	-1.629725  -4.316119  -1.088806 C.ar	1 RES1 0.0
93 C57	-1.863931  -3.620499  0.072724 C.ar	1 RES1 0.0
94 H33	-0.920956  -0.235489  2.894403 H	1 RES1 0.0
95 H34	-1.574326  -2.596983  5.053627 H	1 RES1 0.0
96 H35	0.376385  -2.816734  6.622365 H	1 RES1 0.0
97 H36	2.124252  -4.378117  6.128257 H	1 RES1 0.0
98 H37	2.602778  -4.758402  3.743544 H	1 RES1 0.0
99 H38	0.937451  -4.189623  2.064108 H	1 RES1 0.0
100 H39	-3.268567  -2.587292  0.64421 H	1 RES1 0.0
101 H40	-5.611158  -2.116028  1.42182 H	1 RES1 0.0
102 H41	-6.374694  -3.025515  3.50195 H	1 RES1 0.0
103 H42	-4.677626  -3.281823  5.26681 H	1 RES1 0.0
104 H43	-2.316413  -3.332185  4.684172 H	1 RES1 0.0
105 H44	0.70402  -4.720101  1.898938 H	1 RES1 0.0
106 H45	1.306052  -5.515846  -0.407324 H	1 RES1 0.0
107 H46	-0.411214  -5.777225  -2.056499 H	1 RES1 0.0
108 H47	-2.309022  -4.216084  -1.909446 H	1 RES1 0.0
109 H48	-2.758965  -3.042858  0.173441 H	1 RES1 0.0
110 H49	-0.526698  -0.744805  -1.29006 H	2 RES2 0.0
@<TRIPOS>BOND
1 1 2 1
1 1 38 1
1 1 74 1
1 2 3 1
1 2 22 1
1 3 4 1
1 3 10 1
1 3 16 1
1 4 5 2
1 4 9 1
1 5 6 1
1 5 23 1
1 6 7 2
1 6 24 1
1 7 8 1
1 7 25 1
1 8 9 2
1 8 26 1
1 9 27 1
1 10 11 2
1 10 15 1
1 11 12 1
1 11 28 1
1 12 13 2
1 12 29 1
1 13 14 1
1 13 30 1
1 14 15 2
1 14 31 1
1 15 32 1
1 16 17 2
1 16 21 1
1 17 18 1
1 17 33 1
1 18 19 2
1 18 34 1
1 19 20 1
1 19 35 1
1 20 21 2
1 20 36 1
1 21 37 1
1 27 33 1
1 28 37 1
1 38 39 1
1 38 58 1
1 39 40 1
1 39 46 1
1 39 52 1
1 40 41 2
1 40 45 1
1 41 42 1
1 41 59 1
1 42 43 2
1 42 60 1
1 43 44 1
1 43 61 1
1 44 45 2
1 44 62 1
1 45 63 1
1 46 47 2
1 46 51 1
1 47 48 1
1 47 64 1
1 48 49 2
1 48 65 1
1 49 50 1
1 49 66 1
1 50 51 2
1 50 67 1
1 51 68 1
1 52 53 2
1 52 57 1
1 53 54 1
1 53 69 1
1 54 55 2
1 54 70 1
1 55 56 1
1 55 71 1
1 56 57 2
1 56 72 1
1 57 73 1
1 63 69 1
1 64 73 1
1 74 75 1
1 74 94 1
1 75 76 1
1 75 82 1
1 75 88 1
1 76 77 2
1 76 81 1
1 77 78 1
1 77 95 1
1 78 79 2
1 78 96 1
1 79 80 1
1 79 97 1
1 80 81 2
1 80 98 1
1 81 99 1
1 82 83 2
1 82 87 1
1 83 84 1
1 83 100 1
1 84 85 2
1 84 101 1
1 85 86 1
1 85 102 1
1 86 87 2
1 86 103 1
1 87 104 1
1 88 89 2
1 88 93 1
1 89 90 1
1 89 105 1
1 90 91 2
1 90 106 1
1 91 92 1
1 91 107 1
1 92 93 2
1 92 108 1
1 93 109 1
1 99 105 1
1 100 109 1
@<TRIPOS>SUBSTRUCTURE
1 RES1 109
2 RES2 1

