@<TRIPOS>MOLECULE
/Users/abdulahmed/Documents/GitHub/HER-metal-complex-ligands/Runs//ni_thd_2_4methoxyphenol_3_hydrogensulfide_1_s_1/ni_thd_2_4methoxyphenol_3_hydrogensulfide_1_s_1_conf_1
55	57	1
SMALL
PartialCharges
****
Generated from molSimplify

@<TRIPOS>ATOM
1 Ni1	0.0  0.0  0.0 Ni	1 RES1 0.0
2 C1	7.346821  -3.580524  -0.167924 C.3	1 RES1 0.0
3 O1	5.970056  -3.833514  -0.406487 O.3	1 RES1 0.0
4 C2	5.035107  -2.860203  -0.320222 C.ar	1 RES1 0.0
5 C3	3.716166  -3.239003  -0.398586 C.ar	1 RES1 0.0
6 C4	2.716521  -2.291713  -0.289997 C.ar	1 RES1 0.0
7 C5	3.033964  -0.965603  -0.122189 C.ar	1 RES1 0.0
8 O2	2.0  0.0  0.0 O.3	1 RES1 0.0
9 C6	4.352613  -0.570097  -0.072141 C.ar	1 RES1 0.0
10 C7	5.389725  -1.502675  -0.178546 C.ar	1 RES1 0.0
11 H1	7.525509  -2.525887  -0.194585 H	1 RES1 0.0
12 H2	7.933746  -4.06091  -0.922674 H	1 RES1 0.0
13 H3	7.618633  -3.964142  0.793251 H	1 RES1 0.0
14 H4	3.463449  -4.268536  -0.543829 H	1 RES1 0.0
15 H5	1.690617  -2.592097  -0.336784 H	1 RES1 0.0
16 H6	2.229523  0.965603  0.122189 H	1 RES1 0.0
17 H7	4.587169  0.466704  0.050039 H	1 RES1 0.0
18 H8	6.414863  -1.197129  -0.153358 H	1 RES1 0.0
19 C8	-5.828283  5.73179  0.042863 C.3	1 RES1 0.0
20 O3	-5.615557  4.346714  0.272451 O.3	1 RES1 0.0
21 C9	-4.38397  3.790505  0.220207 C.ar	1 RES1 0.0
22 C10	-4.30379  2.419896  0.285304 C.ar	1 RES1 0.0
23 C11	-3.074419  1.794283  0.209841 C.ar	1 RES1 0.0
24 C12	-1.925221  2.537314  0.088415 C.ar	1 RES1 0.0
25 O4	-0.666707  1.885604  0.0 O.3	1 RES1 0.0
26 C13	-1.990494  3.912885  0.052201 C.ar	1 RES1 0.0
27 C14	-3.218421  4.578749  0.125994 C.ar	1 RES1 0.0
28 H9	-4.895018  6.2513  0.106314 H	1 RES1 0.0
29 H10	-6.501403  6.116322  0.780388 H	1 RES1 0.0
30 H11	-6.248722  5.871434  -0.931114 H	1 RES1 0.0
31 H12	-5.19438  1.836955  0.394528 H	1 RES1 0.0
32 H13	-3.016999  0.72644  0.246116 H	1 RES1 0.0
33 H14	0.170618  2.425112  -0.088415 H	1 RES1 0.0
34 H15	-1.087762  4.480857  -0.033721 H	1 RES1 0.0
35 H16	-3.271431  5.647336  0.111485 H	1 RES1 0.0
36 C15	-4.305077  -5.729329  3.932585 C.3	1 RES1 0.0
37 O5	-3.80435  -5.386403  2.648812 O.3	1 RES1 0.0
38 C16	-3.01914  -4.303524  2.449505 C.ar	1 RES1 0.0
39 C17	-2.729598  -3.960537  1.150367 C.ar	1 RES1 0.0
40 C18	-1.954269  -2.848469  0.884643 C.ar	1 RES1 0.0
41 C19	-1.45325  -2.090829  1.915399 C.ar	1 RES1 0.0
42 O6	-0.666706  -0.942791  1.632988 O.3	1 RES1 0.0
43 C20	-1.711838  -2.441843  3.222184 C.ar	1 RES1 0.0
44 C21	-2.493171  -3.561299  3.52708 C.ar	1 RES1 0.0
45 H17	-3.7599  -5.195106  4.682443 H	1 RES1 0.0
46 H18	-4.191228  -6.781478  4.090455 H	1 RES1 0.0
47 H19	-5.341414  -5.469807  3.99221 H	1 RES1 0.0
48 H20	-3.105064  -4.555414  0.344113 H	1 RES1 0.0
49 H21	-1.743045  -2.576025  -0.128303 H	1 RES1 0.0
50 H22	-0.30135  -0.390354  2.382206 H	1 RES1 0.0
51 H23	-1.3087  -1.848874  4.016393 H	1 RES1 0.0
52 H24	-2.684803  -3.844177  4.541061 H	1 RES1 0.0
53 S1	-0.743377  -1.051212  -1.820781 S.3	1 RES1 0.0
54 H25	-0.139352  -1.525967  -2.919886 H	1 RES1 0.0
55 H26	-1.960677  -1.44369  -2.223794 H	1 RES1 0.0
@<TRIPOS>BOND
1 1 8 1
1 1 25 1
1 1 42 1
1 1 53 1
1 2 3 1
1 2 11 1
1 2 12 1
1 2 13 1
1 3 4 1
1 4 5 2
1 4 10 1
1 5 6 1
1 5 14 1
1 6 7 2
1 6 15 1
1 7 8 1
1 7 9 1
1 8 16 1
1 9 10 2
1 9 17 1
1 10 18 1
1 19 20 1
1 19 28 1
1 19 29 1
1 19 30 1
1 20 21 1
1 21 22 2
1 21 27 1
1 22 23 1
1 22 31 1
1 23 24 2
1 23 32 1
1 24 25 1
1 24 26 1
1 25 33 1
1 26 27 2
1 26 34 1
1 27 35 1
1 36 37 1
1 36 45 1
1 36 46 1
1 36 47 1
1 37 38 1
1 38 39 2
1 38 44 1
1 39 40 1
1 39 48 1
1 40 41 2
1 40 49 1
1 41 42 1
1 41 43 1
1 42 50 1
1 43 44 2
1 43 51 1
1 44 52 1
1 53 54 1
1 53 55 1
@<TRIPOS>SUBSTRUCTURE
1 RES1 55

