@<TRIPOS>MOLECULE
/Users/abdulahmed/Documents/GitHub/HER-metal-complex-ligands/Runs//4_methoxyphenol_hydride/4_methoxyphenol_hydride
50	51	2
SMALL
PartialCharges
****
Generated from molSimplify

@<TRIPOS>ATOM
1 Ni1	0.0  0.0  0.0 Ni	1 RES1 0.0
2 C1	8.343539  -0.700638  0.671738 C.3	1 RES1 0.0
3 O1	7.592253  0.021066  -0.293204 O.3	1 RES1 0.0
4 C2	6.176901  0.077977  -0.193502 C.ar	1 RES1 0.0
5 C3	5.486302  0.323154  0.995594 C.ar	1 RES1 0.0
6 C4	4.105761  0.296598  1.150966 C.ar	1 RES1 0.0
7 C5	3.300902  0.0  0.0 C.ar	1 RES1 0.0
8 O2	2.0  0.0  0.0 O.3	1 RES1 0.0
9 C6	4.00731  -0.304723  -1.20972 C.ar	1 RES1 0.0
10 C7	5.391899  -0.268956  -1.284968 C.ar	1 RES1 0.0
11 H1	9.385146  -0.632578  0.43653 H	1 RES1 0.0
12 H2	8.042317  -1.727329  0.663247 H	1 RES1 0.0
13 H3	8.169264  -0.285828  1.642542 H	1 RES1 0.0
14 H4	6.07115  0.551226  1.862102 H	1 RES1 0.0
15 H5	3.655335  0.491731  2.101724 H	1 RES1 0.0
16 H6	3.448203  -0.568363  -2.0831 H	1 RES1 0.0
17 H7	5.868636  -0.515766  -2.210552 H	1 RES1 0.0
18 C8	-3.396125  7.648933  -0.718976 C.3	1 RES1 0.0
19 O3	-2.530375  7.158178  0.293959 O.3	1 RES1 0.0
20 C9	-1.99848  5.845025  0.19847 C.ar	1 RES1 0.0
21 C10	-1.459474  5.303109  -0.970626 C.ar	1 RES1 0.0
22 C11	-1.014023  3.996314  -1.127473 C.ar	1 RES1 0.0
23 C12	-1.100368  3.112097  0.0 C.ar	1 RES1 0.0
24 O4	-0.666707  1.885604  0.0 O.3	1 RES1 0.0
25 C13	-1.702004  3.648636  1.185516 C.ar	1 RES1 0.0
26 C14	-2.134871  4.964173  1.263077 C.ar	1 RES1 0.0
27 H8	-3.694806  8.648126  -0.479593 H	1 RES1 0.0
28 H9	-4.261878  7.023326  -0.782123 H	1 RES1 0.0
29 H10	-2.884052  7.645143  -1.65848 H	1 RES1 0.0
30 H11	-1.382944  5.950498  -1.819114 H	1 RES1 0.0
31 H12	-0.617821  3.65865  -2.062303 H	1 RES1 0.0
32 H13	-1.821018  3.013529  2.038379 H	1 RES1 0.0
33 H14	-2.586792  5.310044  2.16919 H	1 RES1 0.0
34 C15	-3.67576  -3.952752  6.435939 C.3	1 RES1 0.0
35 O5	-2.290614  -3.748289  6.199366 O.3	1 RES1 0.0
36 C16	-1.866732  -2.983484  5.080528 C.ar	1 RES1 0.0
37 C17	-2.436715  -1.764626  4.705705 C.ar	1 RES1 0.0
38 C18	-2.111952  -1.033729  3.569457 C.ar	1 RES1 0.0
39 C19	-1.100366  -1.55603  2.695167 C.ar	1 RES1 0.0
40 O6	-0.666706  -0.942791  1.632988 O.3	1 RES1 0.0
41 C20	-0.550923  -2.832381  3.047772 C.ar	1 RES1 0.0
42 C21	-0.934807  -3.509559  4.195853 C.ar	1 RES1 0.0
43 H15	-3.803255  -4.547637  7.316142 H	1 RES1 0.0
44 H16	-4.109954  -4.457514  5.598328 H	1 RES1 0.0
45 H17	-4.15781  -3.007172  6.57161 H	1 RES1 0.0
46 H18	-3.188741  -1.358483  5.349447 H	1 RES1 0.0
47 H19	-2.602085  -0.107704  3.352323 H	1 RES1 0.0
48 H20	0.179144  -3.277158  2.404286 H	1 RES1 0.0
49 H21	-0.500365  -4.464607  4.40572 H	1 RES1 0.0
50 H22	-0.526698  -0.744805  -1.29006 H	2 RES2 0.0
@<TRIPOS>BOND
1 1 8 1
1 1 24 1
1 1 40 1
1 2 3 1
1 2 11 1
1 2 12 1
1 2 13 1
1 3 4 1
1 4 5 2
1 4 10 1
1 5 6 1
1 5 14 1
1 6 7 2
1 6 15 1
1 7 8 1
1 7 9 1
1 9 10 2
1 9 16 1
1 10 17 1
1 18 19 1
1 18 27 1
1 18 28 1
1 18 29 1
1 19 20 1
1 20 21 2
1 20 26 1
1 21 22 1
1 21 30 1
1 22 23 2
1 22 31 1
1 23 24 1
1 23 25 1
1 25 26 2
1 25 32 1
1 26 33 1
1 34 35 1
1 34 43 1
1 34 44 1
1 34 45 1
1 35 36 1
1 36 37 2
1 36 42 1
1 37 38 1
1 37 46 1
1 38 39 2
1 38 47 1
1 39 40 1
1 39 41 1
1 41 42 2
1 41 48 1
1 42 49 1
@<TRIPOS>SUBSTRUCTURE
1 RES1 49
2 RES2 1

