@<TRIPOS>MOLECULE
/Users/abdulahmed/Documents/GitHub/HER-metal-complex-ligands/Runs//ni_oct_2_pyridine_6_s_1/ni_oct_2_pyridine_6_s_1_conf_1
67	72	1
SMALL
PartialCharges
****
Generated from molSimplify

@<TRIPOS>ATOM
1 Ni1	0.0  0.0  0.0 Ni	1 RES1 0.0
2 C1	0.000443  4.937098  -0.000357 C.2	1 RES1 0.0
3 C2	1.200996  4.234231  -0.002434 C.2	1 RES1 0.0
4 C3	1.149504  2.849343  -0.004096 C.3	1 RES1 0.0
5 N1	0.0  2.14  0.0 N.pl3	1 RES1 0.0
6 C4	-1.149504  2.849849  0.004096 C.2	1 RES1 0.0
7 C5	-1.199875  4.234769  0.00231 C.2	1 RES1 0.0
8 H1	0.000855  6.02329  -0.000575 H	1 RES1 0.0
9 H2	2.15314  4.751882  -0.00312 H	1 RES1 0.0
10 H3	2.059136  2.255684  -0.00894 H	1 RES1 0.0
11 H4	-2.059199  2.256713  0.009441 H	1 RES1 0.0
12 H5	-2.152235  4.752938  0.003372 H	1 RES1 0.0
13 C6	4.937098  -0.000515  0.000241 C.2	1 RES1 0.0
14 C7	4.234231  -0.528669  1.078381 C.2	1 RES1 0.0
15 C8	2.849343  -0.50759  1.031372 C.3	1 RES1 0.0
16 N2	2.14  0.0  0.0 N.pl3	1 RES1 0.0
17 C9	2.849849  0.50759  -1.031372 C.2	1 RES1 0.0
18 C10	4.234769  0.528067  -1.077428 C.2	1 RES1 0.0
19 H6	6.02329  -0.000892  0.000516 H	1 RES1 0.0
20 H7	4.751882  -0.946679  1.933862 H	1 RES1 0.0
21 H8	2.255684  -0.910701  1.84682 H	1 RES1 0.0
22 H9	2.256713  0.911179  -1.846657 H	1 RES1 0.0
23 H10	4.752938  0.946509  -1.932937 H	1 RES1 0.0
24 C11	-0.000524  -4.937098  -0.000222 C.2	1 RES1 0.0
25 C12	-1.155142  -4.234231  0.3287 C.2	1 RES1 0.0
26 C13	-1.106103  -2.849343  0.312909 C.3	1 RES1 0.0
27 N3	0.0  -2.14  0.0 N.pl3	1 RES1 0.0
28 C14	1.106103  -2.849849  -0.312909 C.2	1 RES1 0.0
29 C15	1.154031  -4.234769  -0.32851 C.2	1 RES1 0.0
30 H11	-0.00098  -6.02329  -0.000317 H	1 RES1 0.0
31 H12	-2.070591  -4.751882  0.590487 H	1 RES1 0.0
32 H13	-1.981833  -2.255684  0.558981 H	1 RES1 0.0
33 H14	1.982031  -2.256713  -0.558516 H	1 RES1 0.0
34 H15	2.06979  -4.752938  -0.589995 H	1 RES1 0.0
35 C16	-4.937098  -0.000203  -0.000531 C.2	1 RES1 0.0
36 C17	-4.234231  0.368813  -1.142967 C.2	1 RES1 0.0
37 C18	-2.849343  0.351321  -1.094509 C.3	1 RES1 0.0
38 N4	-2.14  0.0  0.0 N.pl3	1 RES1 0.0
39 C19	-2.849849  -0.351321  1.094509 C.2	1 RES1 0.0
40 C20	-4.234769  -0.368585  1.141863 C.2	1 RES1 0.0
41 H16	-6.02329  -0.000283  -0.000991 H	1 RES1 0.0
42 H17	-4.751882  0.66239  -2.048722 H	1 RES1 0.0
43 H18	-2.255684  0.627806  -1.961117 H	1 RES1 0.0
44 H19	-2.256713  -0.627348  1.961332 H	1 RES1 0.0
45 H20	-4.752938  -0.66187  2.047939 H	1 RES1 0.0
46 C21	-0.000222  0.000524  4.937098 C.2	1 RES1 0.0
47 C22	0.3287  1.155142  4.234231 C.2	1 RES1 0.0
48 C23	0.312909  1.106103  2.849343 C.3	1 RES1 0.0
49 N5	0.0  0.0  2.14 N.pl3	1 RES1 0.0
50 C24	-0.312909  -1.106103  2.849849 C.2	1 RES1 0.0
51 C25	-0.32851  -1.154031  4.234769 C.2	1 RES1 0.0
52 H21	-0.000317  0.00098  6.02329 H	1 RES1 0.0
53 H22	0.590487  2.070591  4.751882 H	1 RES1 0.0
54 H23	0.558981  1.981833  2.255684 H	1 RES1 0.0
55 H24	-0.558516  -1.982031  2.256713 H	1 RES1 0.0
56 H25	-0.589995  -2.06979  4.752938 H	1 RES1 0.0
57 C26	-0.000215  -0.000527  -4.937098 C.2	1 RES1 0.0
58 C27	0.343336  -1.150877  -4.234231 C.2	1 RES1 0.0
59 C28	0.326924  -1.102042  -2.849343 C.3	1 RES1 0.0
60 N6	0.0  0.0  -2.14 N.pl3	1 RES1 0.0
61 C29	-0.326924  1.102042  -2.849849 C.2	1 RES1 0.0
62 C30	-0.343133  1.149768  -4.234769 C.2	1 RES1 0.0
63 H26	-0.000305  -0.000984  -6.02329 H	1 RES1 0.0
64 H27	0.616722  -2.062929  -4.751882 H	1 RES1 0.0
65 H28	0.584093  -1.974578  -2.255684 H	1 RES1 0.0
66 H29	-0.58363  1.974782  -2.256713 H	1 RES1 0.0
67 H30	-0.61622  2.062134  -4.752938 H	1 RES1 0.0
@<TRIPOS>BOND
1 1 5 1
1 1 16 1
1 1 27 1
1 1 38 1
1 1 49 1
1 1 60 1
1 2 3 2
1 2 7 1
1 2 8 1
1 3 4 1
1 3 9 1
1 4 5 1
1 4 10 1
1 5 6 1
1 6 7 2
1 6 11 1
1 7 12 1
1 13 14 2
1 13 18 1
1 13 19 1
1 14 15 1
1 14 20 1
1 15 16 1
1 15 21 1
1 16 17 1
1 17 18 2
1 17 22 1
1 18 23 1
1 24 25 2
1 24 29 1
1 24 30 1
1 25 26 1
1 25 31 1
1 26 27 1
1 26 32 1
1 27 28 1
1 28 29 2
1 28 33 1
1 29 34 1
1 35 36 2
1 35 40 1
1 35 41 1
1 36 37 1
1 36 42 1
1 37 38 1
1 37 43 1
1 38 39 1
1 39 40 2
1 39 44 1
1 40 45 1
1 46 47 2
1 46 51 1
1 46 52 1
1 47 48 1
1 47 53 1
1 48 49 1
1 48 54 1
1 49 50 1
1 50 51 2
1 50 55 1
1 51 56 1
1 57 58 2
1 57 62 1
1 57 63 1
1 58 59 1
1 58 64 1
1 59 60 1
1 59 65 1
1 60 61 1
1 61 62 2
1 61 66 1
1 62 67 1
@<TRIPOS>SUBSTRUCTURE
1 RES1 67

