@<TRIPOS>MOLECULE
/Users/abdulahmed/Documents/GitHub/HER-metal-complex-ligands/Runs//4_fluoro_2_nitrophenol/4_fluoro_2_nitrophenol
57	60	1
SMALL
PartialCharges
****
Generated from molSimplify

@<TRIPOS>ATOM
1 Ni1	0.0  0.0  0.0 Ni	1 RES1 0.0
2 O1	2.0  0.0  0.0 O.3	1 RES1 0.0
3 C1	3.42  0.0  0.0 C.ar	1 RES1 0.0
4 C2	4.143729  1.219166  0.118469 C.ar	1 RES1 0.0
5 C3	5.516029  1.237559  -0.179875 C.ar	1 RES1 0.0
6 C4	6.172244  0.120423  -0.293641 C.ar	1 RES1 0.0
7 F1	7.46954  0.139031  -0.586174 F	1 RES1 0.0
8 C5	5.514196  -1.102727  -0.108401 C.ar	1 RES1 0.0
9 C6	4.098641  -1.143211  -0.111089 C.ar	1 RES1 0.0
10 N1	3.388413  -2.424341  -0.234306 N.pl3	1 RES1 0.0
11 O2	4.096242  -3.591819  -0.347766 O.2	1 RES1 0.0
12 O3	2.162493  -2.448059  -0.235537 O.2	1 RES1 0.0
13 H1	3.6472  2.113654  0.431917 H	1 RES1 0.0
14 H2	6.02181  2.170939  -0.313616 H	1 RES1 0.0
15 H3	6.077963  -2.000902  0.034247 H	1 RES1 0.0
16 O4	-0.666707  1.885604  0.0 O.3	1 RES1 0.0
17 C7	-1.140069  3.224382  0.0 C.ar	1 RES1 0.0
18 C8	-0.233791  4.312459  0.137598 C.ar	1 RES1 0.0
19 C9	-0.73277  5.591585  0.433247 C.ar	1 RES1 0.0
20 C10	-2.004045  5.838117  0.312261 C.ar	1 RES1 0.0
21 F2	-2.476685  7.047003  0.60227 F	1 RES1 0.0
22 C11	-2.87636  4.831716  -0.123238 C.ar	1 RES1 0.0
23 C12	-2.442341  3.483741  -0.129026 C.ar	1 RES1 0.0
24 N2	-3.411194  2.38786  -0.274863 N.pl3	1 RES1 0.0
25 O5	-4.746039  2.666661  -0.406615 O.2	1 RES1 0.0
26 O6	-3.024643  1.224241  -0.27859 O.2	1 RES1 0.0
27 H4	0.818067  4.15772  0.016974 H	1 RES1 0.0
28 H5	-0.066828  6.363514  0.758126 H	1 RES1 0.0
29 H6	-3.864628  5.080256  -0.44951 H	1 RES1 0.0
30 O7	-0.666706  -0.942791  1.632988 O.3	1 RES1 0.0
31 C13	-1.140067  -1.612172  2.792409 C.ar	1 RES1 0.0
32 C14	-0.663248  -1.249478  4.082867 C.ar	1 RES1 0.0
33 C15	-0.906318  -2.102289  5.171987 C.ar	1 RES1 0.0
34 C16	-1.779517  -3.060338  5.06606 C.ar	1 RES1 0.0
35 F3	-2.001386  -3.873492  6.094873 F	1 RES1 0.0
36 C17	-2.486824  -3.236899  3.869406 C.ar	1 RES1 0.0
37 C18	-2.039634  -2.592086  2.69056 C.ar	1 RES1 0.0
38 N3	-2.558314  -2.995999  1.375749 N.pl3	1 RES1 0.0
39 O8	-3.481895  -4.003692  1.283807 O.2	1 RES1 0.0
40 O9	-2.164348  -2.431025  0.361334 O.2	1 RES1 0.0
41 H7	-0.124521  -0.335572  4.222327 H	1 RES1 0.0
42 H8	-0.37295  -1.963774  6.089174 H	1 RES1 0.0
43 H9	-3.359715  -3.855312  3.846466 H	1 RES1 0.0
44 O10	-0.666706  -0.942791  -1.632988 O.3	1 RES1 0.0
45 C19	-1.140067  -1.612172  -2.792409 C.ar	1 RES1 0.0
46 C20	-1.805636  -2.864931  -2.683793 C.ar	1 RES1 0.0
47 C21	-1.997503  -3.645337  -3.83562 C.ar	1 RES1 0.0
48 C22	-1.822731  -3.121446  -5.013137 C.ar	1 RES1 0.0
49 F4	-1.994917  -3.864345  -6.102794 F	1 RES1 0.0
50 C23	-1.453258  -1.775331  -5.135208 C.ar	1 RES1 0.0
51 C24	-0.968418  -1.077276  -4.002471 C.ar	1 RES1 0.0
52 N4	-0.286939  0.215958  -4.157487 N.pl3	1 RES1 0.0
53 O11	-0.116563  0.755234  -5.405307 O.2	1 RES1 0.0
54 O12	0.129007  0.812014  -3.16999 O.2	1 RES1 0.0
55 H10	-2.15672  -3.20931  -1.733507 H	1 RES1 0.0
56 H11	-2.287556  -4.671223  -3.744369 H	1 RES1 0.0
57 H12	-1.536967  -1.277759  -6.078773 H	1 RES1 0.0
@<TRIPOS>BOND
1 1 2 1
1 1 16 1
1 1 30 1
1 1 44 1
1 2 3 1
1 3 4 2
1 3 9 1
1 4 5 1
1 4 13 1
1 5 6 2
1 5 14 1
1 6 7 1
1 6 8 1
1 8 9 2
1 8 15 1
1 9 10 1
1 10 11 2
1 10 12 2
1 16 17 1
1 17 18 2
1 17 23 1
1 18 19 1
1 18 27 1
1 19 20 2
1 19 28 1
1 20 21 1
1 20 22 1
1 22 23 2
1 22 29 1
1 23 24 1
1 24 25 2
1 24 26 2
1 30 31 1
1 31 32 2
1 31 37 1
1 32 33 1
1 32 41 1
1 33 34 2
1 33 42 1
1 34 35 1
1 34 36 1
1 36 37 2
1 36 43 1
1 37 38 1
1 38 39 2
1 38 40 2
1 44 45 1
1 45 46 2
1 45 51 1
1 46 47 1
1 46 55 1
1 47 48 2
1 47 56 1
1 48 49 1
1 48 50 1
1 50 51 2
1 50 57 1
1 51 52 1
1 52 53 2
1 52 54 2
@<TRIPOS>SUBSTRUCTURE
1 RES1 57

