@<TRIPOS>MOLECULE
/home/jovyan/shared-scratch-kabdelma-pvc/kabdelma/HER-metal-complex-ligands/Runs//ni_oct_2_1-octanethiol_6_s_1/badjob_ni_oct_2_1-octanethiol_6_s_1_conf_1
163	177	1
SMALL
PartialCharges
****
Generated from molSimplify

@<TRIPOS>ATOM
1 Ni1	0.0  0.0  0.0 Ni	1 RES1 0.0
2 C1	4.405857  1.779194  4.440541 C.3	1 RES1 0.0
3 C2	4.531802  2.608876  3.173195 C.3	1 RES1 0.0
4 C3	4.0905  1.779198  1.978504 C.3	1 RES1 0.0
5 C4	2.643037  1.3539  2.1639 C.3	1 RES1 0.0
6 C5	1.76282  2.587961  2.276641 C.3	1 RES1 0.0
7 C6	1.888765  3.417643  1.009295 C.3	1 RES1 0.0
8 C7	1.447463  2.587965  -0.185396 C.3	1 RES1 0.0
9 C8	0.0  2.162667  -0.0 C.3	1 RES1 0.0
10 S1	-1.048152  3.632175  0.134251 S.3	1 RES1 0.0
11 H1	3.38692  1.479805  4.571052 H	1 RES1 0.0
12 H2	4.71651  2.363244  5.281541 H	1 RES1 0.0
13 H3	5.025483  0.91048  4.361177 H	1 RES1 0.0
14 H4	3.912177  3.477591  3.252561 H	1 RES1 0.0
15 H5	5.55074  2.908264  3.042686 H	1 RES1 0.0
16 H6	4.17916  2.363251  1.08636 H	1 RES1 0.0
17 H7	4.710126  0.910483  1.89914 H	1 RES1 0.0
18 H8	2.332385  0.769849  1.322901 H	1 RES1 0.0
19 H9	2.554378  0.769847  3.056045 H	1 RES1 0.0
20 H10	0.743883  2.288573  2.407152 H	1 RES1 0.0
21 H11	2.073473  3.172011  3.117641 H	1 RES1 0.0
22 H12	1.26914  4.286358  1.088661 H	1 RES1 0.0
23 H13	2.907703  3.717032  0.878786 H	1 RES1 0.0
24 H14	1.536124  3.172018  -1.07754 H	1 RES1 0.0
25 H15	2.067089  1.719251  -0.26476 H	1 RES1 0.0
26 H16	-0.310652  1.578616  -0.840999 H	1 RES1 0.0
27 H17	-0.088659  1.578614  0.892145 H	1 RES1 0.0
28 H18	-0.653304  4.374519  1.203185 H	1 RES1 0.0
29 C9	1.779194  -4.122387  -4.704881 C.3	1 RES1 0.0
30 C10	2.608876  -2.849343  -4.742114 C.3	1 RES1 0.0
31 C11	1.779198  -1.688346  -4.218549 C.3	1 RES1 0.0
32 C12	1.3539  -1.97426  -2.787545 C.3	1 RES1 0.0
33 C13	2.587961  -2.148127  -1.917337 C.3	1 RES1 0.0
34 C14	3.417643  -0.875083  -1.954569 C.3	1 RES1 0.0
35 C15	2.587965  0.285914  -1.431005 C.3	1 RES1 0.0
36 C16	2.162667  0.0  0.0 C.3	1 RES1 0.0
37 S2	3.632175  -0.207039  1.036234 S.3	1 RES1 0.0
38 H19	1.479805  -4.323657  -3.69753 H	1 RES1 0.0
39 H20	2.363244  -4.939668  -5.073442 H	1 RES1 0.0
40 H21	0.91048  -3.999994  -5.317462 H	1 RES1 0.0
41 H22	3.477591  -2.971738  -4.129534 H	1 RES1 0.0
42 H23	2.908264  -2.648074  -5.749465 H	1 RES1 0.0
43 H24	2.363251  -0.79219  -4.244761 H	1 RES1 0.0
44 H25	0.910483  -1.565952  -4.83113 H	1 RES1 0.0
45 H26	0.769849  -1.156979  -2.418984 H	1 RES1 0.0
46 H27	0.769847  -2.870416  -2.761334 H	1 RES1 0.0
47 H28	2.288573  -2.349397  -0.909985 H	1 RES1 0.0
48 H29	3.172011  -2.965408  -2.285898 H	1 RES1 0.0
49 H30	4.286358  -0.997478  -1.34199 H	1 RES1 0.0
50 H31	3.717032  -0.673814  -2.961921 H	1 RES1 0.0
51 H32	3.172018  1.18207  -1.457216 H	1 RES1 0.0
52 H33	1.719251  0.408308  -2.043585 H	1 RES1 0.0
53 H34	1.578616  0.817281  0.36856 H	1 RES1 0.0
54 H35	1.578614  -0.896156  0.02621 H	1 RES1 0.0
55 H36	4.374519  -1.245826  0.567783 H	1 RES1 0.0
56 C17	-4.248201  -1.779194  4.591598 C.3	1 RES1 0.0
57 C18	-4.418298  -2.608876  3.32942 C.3	1 RES1 0.0
58 C19	-4.018959  -1.779198  2.120055 C.3	1 RES1 0.0
59 C20	-2.565908  -1.3539  2.254823 C.3	1 RES1 0.0
60 C21	-1.682293  -2.587961  2.336776 C.3	1 RES1 0.0
61 C22	-1.852391  -3.417643  1.074597 C.3	1 RES1 0.0
62 C23	-1.453052  -2.587965  -0.134767 C.3	1 RES1 0.0
63 C24	0.0  -2.162667  0.0 C.3	1 RES1 0.0
64 S3	1.052199  -3.632175  0.097589 S.3	1 RES1 0.0
65 H37	-3.225329  -1.479805  4.686469 H	1 RES1 0.0
66 H38	-4.529314  -2.363244  5.442927 H	1 RES1 0.0
67 H39	-4.870219  -0.91048  4.533908 H	1 RES1 0.0
68 H40	-3.796281  -3.477591  3.387113 H	1 RES1 0.0
69 H41	-5.44117  -2.908264  3.23455 H	1 RES1 0.0
70 H42	-4.138701  -2.363251  1.231549 H	1 RES1 0.0
71 H43	-4.640978  -0.910483  2.062364 H	1 RES1 0.0
72 H44	-2.284796  -0.769849  1.403494 H	1 RES1 0.0
73 H45	-2.446167  -0.769847  3.143329 H	1 RES1 0.0
74 H46	-0.659422  -2.288573  2.431646 H	1 RES1 0.0
75 H47	-1.963406  -3.172011  3.188105 H	1 RES1 0.0
76 H48	-1.230373  -4.286358  1.13229 H	1 RES1 0.0
77 H49	-2.875262  -3.717032  0.979728 H	1 RES1 0.0
78 H50	-1.572794  -3.172018  -1.023274 H	1 RES1 0.0
79 H51	-2.07507  -1.719251  -0.192459 H	1 RES1 0.0
80 H52	0.281112  -1.578616  -0.851329 H	1 RES1 0.0
81 H53	0.119741  -1.578614  0.888507 H	1 RES1 0.0
82 H54	0.694897  -4.374519  1.179652 H	1 RES1 0.0
83 C25	-1.779194  3.784149  -4.980984 C.3	1 RES1 0.0
84 C26	-2.608876  2.511609  -4.929322 C.3	1 RES1 0.0
85 C27	-1.779198  1.389962  -4.326046 C.3	1 RES1 0.0
86 C28	-1.3539  1.775002  -2.918472 C.3	1 RES1 0.0
87 C29	-2.587961  2.009148  -2.062512 C.3	1 RES1 0.0
88 C30	-3.417643  0.736607  -2.010851 C.3	1 RES1 0.0
89 C31	-2.587965  -0.38504  -1.407574 C.3	1 RES1 0.0
90 C32	-2.162667  0.0  0.0 C.3	1 RES1 0.0
91 S4	-3.632175  0.278819  1.019268 S.3	1 RES1 0.0
92 H55	-1.479805  4.055198  -3.990126 H	1 RES1 0.0
93 H56	-2.363244  4.57373  -5.405657 H	1 RES1 0.0
94 H57	-0.91048  3.619323  -5.583534 H	1 RES1 0.0
95 H58	-3.477591  2.676437  -4.326773 H	1 RES1 0.0
96 H59	-2.908264  2.240561  -5.92018 H	1 RES1 0.0
97 H60	-2.363251  0.494161  -4.289681 H	1 RES1 0.0
98 H61	-0.910483  1.225134  -4.928596 H	1 RES1 0.0
99 H62	-0.769849  0.985421  -2.493799 H	1 RES1 0.0
100 H63	-0.769847  2.670803  -2.954838 H	1 RES1 0.0
101 H64	-2.288573  2.280197  -1.071654 H	1 RES1 0.0
102 H65	-3.172011  2.798729  -2.487186 H	1 RES1 0.0
103 H66	-4.286358  0.901436  -1.408301 H	1 RES1 0.0
104 H67	-3.717032  0.46556  -3.001709 H	1 RES1 0.0
105 H68	-3.172018  -1.280841  -1.37121 H	1 RES1 0.0
106 H69	-1.719251  -0.549867  -2.010125 H	1 RES1 0.0
107 H70	-1.578616  -0.789581  0.424673 H	1 RES1 0.0
108 H71	-1.578614  0.895801  -0.036366 H	1 RES1 0.0
109 H72	-4.374519  1.282398  0.479495 H	1 RES1 0.0
110 C33	3.744976  -5.010503  1.870228 C.3	1 RES1 0.0
111 C34	4.046075  -3.773019  2.69991 C.3	1 RES1 0.0
112 C35	3.775337  -2.528537  1.870232 C.3	1 RES1 0.0
113 C36	2.316158  -2.510681  1.444934 C.3	1 RES1 0.0
114 C37	1.428818  -2.499822  2.678995 C.3	1 RES1 0.0
115 C38	1.729917  -1.262338  3.508677 C.3	1 RES1 0.0
116 C39	1.459179  -0.017856  2.678999 C.3	1 RES1 0.0
117 C40	0.0  0.0  2.253701 C.3	1 RES1 0.0
118 S5	-1.056636  0.01293  3.723209 S.3	1 RES1 0.0
119 H73	2.717791  -4.997935  1.570839 H	1 RES1 0.0
120 H74	3.935561  -5.886553  2.454278 H	1 RES1 0.0
121 H75	4.369617  -5.018147  1.001513 H	1 RES1 0.0
122 H76	3.421435  -3.765377  3.568625 H	1 RES1 0.0
123 H77	5.07326  -3.785588  2.999298 H	1 RES1 0.0
124 H78	3.987297  -1.657414  2.454285 H	1 RES1 0.0
125 H79	4.399978  -2.53618  1.001517 H	1 RES1 0.0
126 H80	2.125574  -1.634631  0.860883 H	1 RES1 0.0
127 H81	2.104199  -3.381804  0.860881 H	1 RES1 0.0
128 H82	0.401633  -2.487254  2.379606 H	1 RES1 0.0
129 H83	1.619402  -3.375872  3.263045 H	1 RES1 0.0
130 H84	1.105276  -1.254696  4.377392 H	1 RES1 0.0
131 H85	2.757102  -1.274908  3.808066 H	1 RES1 0.0
132 H86	1.671139  0.853267  3.263052 H	1 RES1 0.0
133 H87	2.08382  -0.025499  1.810285 H	1 RES1 0.0
134 H88	-0.190584  0.876049  1.66965 H	1 RES1 0.0
135 H89	-0.211959  -0.871123  1.669648 H	1 RES1 0.0
136 H90	-0.814397  -1.100553  4.465553 H	1 RES1 0.0
137 C41	-2.478273  5.743531  -1.792687 C.3	1 RES1 0.0
138 C42	-1.255314  5.388004  -2.622369 C.3	1 RES1 0.0
139 C43	-0.311212  4.53319  -1.792691 C.3	1 RES1 0.0
140 C44	-1.022781  3.259145  -1.367393 C.3	1 RES1 0.0
141 C45	-1.455492  2.484386  -2.601454 C.3	1 RES1 0.0
142 C46	-0.232534  2.128859  -3.431136 C.3	1 RES1 0.0
143 C47	0.711568  1.274045  -2.601458 C.3	1 RES1 0.0
144 C48	0.0  -0.0  -2.17616 C.3	1 RES1 0.0
145 S6	-0.515269  -0.922575  -3.645668 S.3	1 RES1 0.0
146 H91	-2.979181  4.846671  -1.493298 H	1 RES1 0.0
147 H92	-3.142872  6.345274  -2.376737 H	1 RES1 0.0
148 H93	-2.173667  6.288921  -0.923972 H	1 RES1 0.0
149 H94	-1.559922  4.842615  -3.491084 H	1 RES1 0.0
150 H95	-0.754407  6.284864  -2.921757 H	1 RES1 0.0
151 H96	0.549687  4.28292  -2.376744 H	1 RES1 0.0
152 H97	-0.006605  5.07858  -0.923976 H	1 RES1 0.0
153 H98	-0.358182  2.657403  -0.783342 H	1 RES1 0.0
154 H99	-1.883679  3.509417  -0.78334 H	1 RES1 0.0
155 H100	-1.9564  1.587526  -2.302065 H	1 RES1 0.0
156 H101	-2.120091  3.086128  -3.185504 H	1 RES1 0.0
157 H102	-0.537141  1.58347  -4.299851 H	1 RES1 0.0
158 H103	0.268373  3.025719  -3.730525 H	1 RES1 0.0
159 H104	1.572467  1.023775  -3.185511 H	1 RES1 0.0
160 H105	1.016175  1.819435  -1.732744 H	1 RES1 0.0
161 H106	0.664599  -0.601742  -1.592109 H	1 RES1 0.0
162 H107	-0.860899  0.250272  -1.592107 H	1 RES1 0.0
163 H108	-1.359992  -0.157743  -4.388012 H	1 RES1 0.0
@<TRIPOS>BOND
1 1 9 1
1 1 36 1
1 1 63 1
1 1 90 1
1 1 117 1
1 1 144 1
1 2 3 1
1 2 11 1
1 2 12 1
1 2 13 1
1 3 4 1
1 3 14 1
1 3 15 1
1 4 5 1
1 4 16 1
1 4 17 1
1 5 6 1
1 5 18 1
1 5 19 1
1 6 7 1
1 6 20 1
1 6 21 1
1 7 8 1
1 7 22 1
1 7 23 1
1 8 9 1
1 8 24 1
1 8 25 1
1 9 10 1
1 9 26 1
1 9 27 1
1 9 153 1
1 10 28 1
1 10 140 1
1 10 153 1
1 10 154 1
1 29 30 1
1 29 38 1
1 29 39 1
1 29 40 1
1 30 31 1
1 30 41 1
1 30 42 1
1 31 32 1
1 31 43 1
1 31 44 1
1 32 33 1
1 32 45 1
1 32 46 1
1 33 34 1
1 33 47 1
1 33 48 1
1 34 35 1
1 34 49 1
1 34 50 1
1 35 36 1
1 35 51 1
1 35 52 1
1 36 37 1
1 36 53 1
1 36 54 1
1 37 55 1
1 56 57 1
1 56 65 1
1 56 66 1
1 56 67 1
1 57 58 1
1 57 68 1
1 57 69 1
1 58 59 1
1 58 70 1
1 58 71 1
1 59 60 1
1 59 72 1
1 59 73 1
1 60 61 1
1 60 74 1
1 60 75 1
1 61 62 1
1 61 76 1
1 61 77 1
1 62 63 1
1 62 78 1
1 62 79 1
1 63 64 1
1 63 80 1
1 63 81 1
1 64 82 1
1 64 127 1
1 83 84 1
1 83 92 1
1 83 93 1
1 83 94 1
1 84 85 1
1 84 95 1
1 84 96 1
1 85 86 1
1 85 97 1
1 85 98 1
1 85 157 1
1 86 87 1
1 86 99 1
1 86 100 1
1 86 141 1
1 86 142 1
1 86 155 1
1 87 88 1
1 87 101 1
1 87 102 1
1 87 141 1
1 87 155 1
1 88 89 1
1 88 103 1
1 88 104 1
1 89 90 1
1 89 105 1
1 89 106 1
1 90 91 1
1 90 107 1
1 90 108 1
1 91 109 1
1 98 157 1
1 99 144 1
1 100 141 1
1 100 142 1
1 110 111 1
1 110 119 1
1 110 120 1
1 110 121 1
1 111 112 1
1 111 122 1
1 111 123 1
1 112 113 1
1 112 124 1
1 112 125 1
1 113 114 1
1 113 126 1
1 113 127 1
1 114 115 1
1 114 128 1
1 114 129 1
1 115 116 1
1 115 130 1
1 115 131 1
1 116 117 1
1 116 132 1
1 116 133 1
1 117 118 1
1 117 134 1
1 117 135 1
1 118 136 1
1 137 138 1
1 137 146 1
1 137 147 1
1 137 148 1
1 138 139 1
1 138 149 1
1 138 150 1
1 139 140 1
1 139 151 1
1 139 152 1
1 140 141 1
1 140 153 1
1 140 154 1
1 141 142 1
1 141 155 1
1 141 156 1
1 142 143 1
1 142 157 1
1 142 158 1
1 143 144 1
1 143 159 1
1 143 160 1
1 144 145 1
1 144 161 1
1 144 162 1
1 145 163 1
@<TRIPOS>SUBSTRUCTURE
1 RES1 163

