@<TRIPOS>MOLECULE
/Users/abdulahmed/Documents/GitHub/HER-metal-complex-ligands/Runs//ni_oct_2_2_2bipyridyl_3_s_1/ni_oct_2_2_2bipyridyl_3_s_1_conf_1
61	69	1
SMALL
PartialCharges
****
Generated from molSimplify

@<TRIPOS>ATOM
1 Ni1	0.0  0.0  0.0 Ni	1 RES1 0.0
2 C1	-0.830159  4.400888  -0.004866 C.2	1 RES1 0.0
3 C2	0.470978  4.881081  -0.010915 C.2	1 RES1 0.0
4 C3	1.536013  3.978656  -0.011465 C.2	1 RES1 0.0
5 C4	1.277797  2.605598  -0.005923 C.2	1 RES1 0.0
6 N1	0.0  2.14  -0.0 N.pl3	1 RES1 0.0
7 C5	-1.0131  3.031822  0.000409 C.2	1 RES1 0.0
8 C6	2.326339  1.557056  -0.005928 C.2	1 RES1 0.0
9 C7	3.699395  1.815282  -0.011486 C.2	1 RES1 0.0
10 C8	4.601827  0.750254  -0.010946 C.2	1 RES1 0.0
11 C9	4.121642  -0.550886  -0.00489 C.2	1 RES1 0.0
12 C10	2.752577  -0.733838  0.000399 C.2	1 RES1 0.0
13 N2	1.860745  0.279255  -0.0 N.pl3	1 RES1 0.0
14 H1	-1.679659  5.073842  -0.004271 H	1 RES1 0.0
15 H2	0.659993  5.950821  -0.015194 H	1 RES1 0.0
16 H3	2.545806  4.370265  -0.016225 H	1 RES1 0.0
17 H4	-2.007958  2.596368  0.005266 H	1 RES1 0.0
18 H5	4.090996  2.825078  -0.016252 H	1 RES1 0.0
19 H6	5.671565  0.939276  -0.015235 H	1 RES1 0.0
20 H7	4.794602  -1.400381  -0.004302 H	1 RES1 0.0
21 H8	2.317131  -1.7287  0.005262 H	1 RES1 0.0
22 C11	-0.004866  -4.400888  -0.830159 C.2	1 RES1 0.0
23 C12	-0.010915  -4.881081  0.470978 C.2	1 RES1 0.0
24 C13	-0.011465  -3.978656  1.536013 C.2	1 RES1 0.0
25 C14	-0.005923  -2.605598  1.277797 C.2	1 RES1 0.0
26 N3	-0.0  -2.14  0.0 N.pl3	1 RES1 0.0
27 C15	0.000409  -3.031822  -1.0131 C.2	1 RES1 0.0
28 C16	-0.005928  -1.557056  2.326339 C.2	1 RES1 0.0
29 C17	-0.011486  -1.815282  3.699395 C.2	1 RES1 0.0
30 C18	-0.010946  -0.750254  4.601827 C.2	1 RES1 0.0
31 C19	-0.00489  0.550886  4.121642 C.2	1 RES1 0.0
32 C20	0.000399  0.733838  2.752577 C.2	1 RES1 0.0
33 N4	-0.0  -0.279255  1.860745 N.pl3	1 RES1 0.0
34 H9	-0.004271  -5.073842  -1.679659 H	1 RES1 0.0
35 H10	-0.015194  -5.950821  0.659993 H	1 RES1 0.0
36 H11	-0.016225  -4.370265  2.545806 H	1 RES1 0.0
37 H12	0.005266  -2.596368  -2.007958 H	1 RES1 0.0
38 H13	-0.016252  -2.825078  4.090996 H	1 RES1 0.0
39 H14	-0.015235  -0.939276  5.671565 H	1 RES1 0.0
40 H15	-0.004302  1.400381  4.794602 H	1 RES1 0.0
41 H16	0.005262  1.7287  2.317131 H	1 RES1 0.0
42 C21	-4.400888  -0.004866  0.830159 C.2	1 RES1 0.0
43 C22	-4.881081  -0.010915  -0.470978 C.2	1 RES1 0.0
44 C23	-3.978656  -0.011465  -1.536013 C.2	1 RES1 0.0
45 C24	-2.605598  -0.005923  -1.277797 C.2	1 RES1 0.0
46 N5	-2.14  0.0  0.0 N.pl3	1 RES1 0.0
47 C25	-3.031822  0.000409  1.0131 C.2	1 RES1 0.0
48 C26	-1.557056  -0.005928  -2.326339 C.2	1 RES1 0.0
49 C27	-1.815282  -0.011486  -3.699395 C.2	1 RES1 0.0
50 C28	-0.750254  -0.010946  -4.601827 C.2	1 RES1 0.0
51 C29	0.550886  -0.00489  -4.121642 C.2	1 RES1 0.0
52 C30	0.733838  0.000399  -2.752577 C.2	1 RES1 0.0
53 N6	-0.279255  -0.0  -1.860745 N.pl3	1 RES1 0.0
54 H17	-5.073842  -0.004271  1.679659 H	1 RES1 0.0
55 H18	-5.950821  -0.015194  -0.659993 H	1 RES1 0.0
56 H19	-4.370265  -0.016225  -2.545806 H	1 RES1 0.0
57 H20	-2.596368  0.005266  2.007958 H	1 RES1 0.0
58 H21	-2.825078  -0.016252  -4.090996 H	1 RES1 0.0
59 H22	-0.939276  -0.015235  -5.671565 H	1 RES1 0.0
60 H23	1.400381  -0.004302  -4.794602 H	1 RES1 0.0
61 H24	1.7287  0.005262  -2.317131 H	1 RES1 0.0
@<TRIPOS>BOND
1 1 6 1
1 1 13 1
1 1 26 1
1 1 33 1
1 1 46 1
1 1 53 1
1 2 3 1
1 2 7 2
1 2 14 1
1 3 4 2
1 3 15 1
1 4 5 1
1 4 16 1
1 5 6 1
1 5 8 2
1 6 7 1
1 7 17 1
1 8 9 1
1 8 13 1
1 9 10 2
1 9 18 1
1 10 11 1
1 10 19 1
1 11 12 2
1 11 20 1
1 12 13 1
1 12 21 1
1 22 23 1
1 22 27 2
1 22 34 1
1 23 24 2
1 23 35 1
1 24 25 1
1 24 36 1
1 25 26 1
1 25 28 2
1 26 27 1
1 27 37 1
1 28 29 1
1 28 33 1
1 29 30 2
1 29 38 1
1 30 31 1
1 30 39 1
1 31 32 2
1 31 40 1
1 32 33 1
1 32 41 1
1 42 43 1
1 42 47 2
1 42 54 1
1 43 44 2
1 43 55 1
1 44 45 1
1 44 56 1
1 45 46 1
1 45 48 2
1 46 47 1
1 47 57 1
1 48 49 1
1 48 53 1
1 49 50 2
1 49 58 1
1 50 51 1
1 50 59 1
1 51 52 2
1 51 60 1
1 52 53 1
1 52 61 1
@<TRIPOS>SUBSTRUCTURE
1 RES1 61

