@<TRIPOS>MOLECULE
/Users/abdulahmed/Documents/GitHub/HER-metal-complex-ligands/Runs//ni_thd_2_4methoxyphenol_4_s_1_1/ni_thd_2_4methoxyphenol_4_s_1_conf_1
65	68	1
SMALL
PartialCharges
****
Generated from molSimplify

@<TRIPOS>ATOM
1 Ni1	0.0  0.0  0.0 Ni	1 RES1 0.0
2 C1	8.407488  -0.493362  -0.66587 C.3	1 RES1 0.0
3 O1	7.590723  0.184319  0.277551 O.3	1 RES1 0.0
4 C2	6.176901  0.143094  0.151814 C.ar	1 RES1 0.0
5 C3	5.486302  -1.039443  -0.123262 C.ar	1 RES1 0.0
6 C4	4.105761  -1.169433  -0.212416 C.ar	1 RES1 0.0
7 C5	3.300902  0.0  0.0 C.ar	1 RES1 0.0
8 O2	2.0  -0.0  0.0 O.3	1 RES1 0.0
9 C6	4.00731  1.226192  0.229631 C.ar	1 RES1 0.0
10 C7	5.391899  1.279559  0.293612 C.ar	1 RES1 0.0
11 H1	9.437429  -0.351797  -0.412726 H	1 RES1 0.0
12 H2	8.223415  -0.100775  -1.644079 H	1 RES1 0.0
13 H3	8.177071  -1.538162  -0.651693 H	1 RES1 0.0
14 H4	6.07115  -1.921853  -0.278842 H	1 RES1 0.0
15 H5	3.655335  -2.114568  -0.433177 H	1 RES1 0.0
16 H6	3.448203  2.129732  0.355786 H	1 RES1 0.0
17 H7	5.868636  2.223465  0.456903 H	1 RES1 0.0
18 C8	-3.27792  7.758557  -0.657789 C.3	1 RES1 0.0
19 O3	-2.326755  7.22855  0.253682 O.3	1 RES1 0.0
20 C9	-1.958692  5.859094  0.179396 C.ar	1 RES1 0.0
21 C10	-1.670467  5.228506  -1.033152 C.ar	1 RES1 0.0
22 C11	-1.257276  3.910305  -1.182681 C.ar	1 RES1 0.0
23 C12	-1.100368  3.112097  0.0 C.ar	1 RES1 0.0
24 O4	-0.666707  1.885604  0.0 O.3	1 RES1 0.0
25 C13	-1.446394  3.739015  1.241986 C.ar	1 RES1 0.0
26 C14	-1.863835  5.060005  1.310922 C.ar	1 RES1 0.0
27 H8	-3.428624  8.797696  -0.451932 H	1 RES1 0.0
28 H9	-4.205111  7.235482  -0.55004 H	1 RES1 0.0
29 H10	-2.916748  7.641863  -1.658207 H	1 RES1 0.0
30 H11	-1.777113  5.811128  -1.924263 H	1 RES1 0.0
31 H12	-1.061583  3.501746  -2.152053 H	1 RES1 0.0
32 H13	-1.380486  3.169291  2.145298 H	1 RES1 0.0
33 H14	-2.120064  5.475069  2.263271 H	1 RES1 0.0
34 C15	-3.577362  -3.91956  6.573597 C.3	1 RES1 0.0
35 O5	-2.221444  -3.580688  6.322495 O.3	1 RES1 0.0
36 C16	-1.862413  -2.944336  5.104893 C.ar	1 RES1 0.0
37 C17	-2.593257  -1.877729  4.576493 C.ar	1 RES1 0.0
38 C18	-2.278648  -1.17387  3.420491 C.ar	1 RES1 0.0
39 C19	-1.100366  -1.55603  2.695167 C.ar	1 RES1 0.0
40 O6	-0.666706  -0.942791  1.632988 O.3	1 RES1 0.0
41 C20	-0.37702  -2.684231  3.204306 C.ar	1 RES1 0.0
42 C21	-0.760233  -3.345521  4.361833 C.ar	1 RES1 0.0
43 H15	-3.656304  -4.3877  7.532509 H	1 RES1 0.0
44 H16	-3.922261  -4.594039  5.817936 H	1 RES1 0.0
45 H17	-4.175235  -3.032289  6.559555 H	1 RES1 0.0
46 H18	-3.471666  -1.576509  5.108061 H	1 RES1 0.0
47 H19	-2.897231  -0.369689  3.080567 H	1 RES1 0.0
48 H20	0.486693  -3.027369  2.674064 H	1 RES1 0.0
49 H21	-0.190201  -4.188882  4.691539 H	1 RES1 0.0
50 C22	-2.22688  -3.579896  -7.321065 C.3	1 RES1 0.0
51 O7	-2.77249  -3.719283  -6.0175 O.3	1 RES1 0.0
52 C23	-2.18735  -3.026062  -4.925046 C.ar	1 RES1 0.0
53 C24	-1.815628  -1.682145  -5.006897 C.ar	1 RES1 0.0
54 C25	-1.284623  -0.92386  -3.970666 C.ar	1 RES1 0.0
55 C26	-1.100366  -1.55603  -2.695167 C.ar	1 RES1 0.0
56 O8	-0.666706  -0.942791  -1.632988 O.3	1 RES1 0.0
57 C27	-1.430448  -2.949182  -2.621252 C.ar	1 RES1 0.0
58 C28	-1.946743  -3.643944  -3.70512 C.ar	1 RES1 0.0
59 H22	-2.793636  -4.170728  -8.00998 H	1 RES1 0.0
60 H23	-1.209654  -3.911783  -7.319317 H	1 RES1 0.0
61 H24	-2.266219  -2.552146  -7.616163 H	1 RES1 0.0
62 H25	-1.95158  -1.194188  -5.949402 H	1 RES1 0.0
63 H26	-1.020521  0.102328  -4.119294 H	1 RES1 0.0
64 H27	-1.273406  -3.470057  -1.699879 H	1 RES1 0.0
65 H28	-2.165849  -4.685783  -3.598052 H	1 RES1 0.0
@<TRIPOS>BOND
1 1 8 1
1 1 24 1
1 1 40 1
1 1 56 1
1 2 3 1
1 2 11 1
1 2 12 1
1 2 13 1
1 3 4 1
1 4 5 2
1 4 10 1
1 5 6 1
1 5 14 1
1 6 7 2
1 6 15 1
1 7 8 1
1 7 9 1
1 9 10 2
1 9 16 1
1 10 17 1
1 18 19 1
1 18 27 1
1 18 28 1
1 18 29 1
1 19 20 1
1 20 21 2
1 20 26 1
1 21 22 1
1 21 30 1
1 22 23 2
1 22 31 1
1 23 24 1
1 23 25 1
1 25 26 2
1 25 32 1
1 26 33 1
1 34 35 1
1 34 43 1
1 34 44 1
1 34 45 1
1 35 36 1
1 36 37 2
1 36 42 1
1 37 38 1
1 37 46 1
1 38 39 2
1 38 47 1
1 39 40 1
1 39 41 1
1 41 42 2
1 41 48 1
1 42 49 1
1 50 51 1
1 50 59 1
1 50 60 1
1 50 61 1
1 51 52 1
1 52 53 2
1 52 58 1
1 53 54 1
1 53 62 1
1 54 55 2
1 54 63 1
1 55 56 1
1 55 57 1
1 57 58 2
1 57 64 1
1 58 65 1
@<TRIPOS>SUBSTRUCTURE
1 RES1 65

