@<TRIPOS>MOLECULE
/home/jovyan/shared-scratch-kabdelma-pvc/kabdelma/HER-metal-complex-ligands/Runs//ni_tpl_2_2-mercaptopyridine_3_s_1/ni_tpl_2_2-mercaptopyridine_3_s_1_conf_1
37	39	1
SMALL
PartialCharges
****
Generated from molSimplify

@<TRIPOS>ATOM
1 Ni1	0.0  0.0  0.0 Ni	1 RES1 0.0
2 S1	2.23  0.0  0.0 S.3	1 RES1 0.0
3 C1	3.927363  -0.0  -0.0 C.3	1 RES1 0.0
4 N1	4.604774  -1.188821  -0.045685 N.pl3	1 RES1 0.0
5 C2	5.954185  -1.316536  -0.107674 C.2	1 RES1 0.0
6 C3	6.731157  -0.211729  -0.105402 C.2	1 RES1 0.0
7 C4	6.123728  1.045765  -0.032595 C.2	1 RES1 0.0
8 C5	4.749886  1.157051  0.037282 C.2	1 RES1 0.0
9 H1	4.0517  -2.045747  -0.032055 H	1 RES1 0.0
10 H2	6.400577  -2.287664  -0.158107 H	1 RES1 0.0
11 H3	7.796392  -0.297459  -0.158559 H	1 RES1 0.0
12 H4	6.728671  1.928342  -0.03105 H	1 RES1 0.0
13 H5	4.300179  2.1244  0.120344 H	1 RES1 0.0
14 S2	-1.115  1.931236  0.0 S.3	1 RES1 0.0
15 C6	-1.963682  3.401195  0.0 C.3	1 RES1 0.0
16 N2	-3.283379  3.421475  -0.36367 N.pl3	1 RES1 0.0
17 C7	-4.08038  4.519492  -0.349101 C.2	1 RES1 0.0
18 C8	-3.569104  5.711847  0.02663 C.2	1 RES1 0.0
19 C9	-2.220479  5.789078  0.388302 C.2	1 RES1 0.0
20 C10	-1.422296  4.663533  0.360701 C.2	1 RES1 0.0
21 H6	-3.70017  2.542206  -0.669565 H	1 RES1 0.0
22 H7	-5.108816  4.441173  -0.633855 H	1 RES1 0.0
23 H8	-4.187234  6.584997  0.047259 H	1 RES1 0.0
24 H9	-1.804254  6.727914  0.688709 H	1 RES1 0.0
25 H10	-0.385613  4.742786  0.613502 H	1 RES1 0.0
26 S3	-1.115  -1.931236  0.0 S.3	1 RES1 0.0
27 C11	-1.963682  -3.401195  -0.0 C.3	1 RES1 0.0
28 N3	-1.886624  -4.227892  1.088532 N.pl3	1 RES1 0.0
29 C12	-2.561094  -5.396652  1.230496 C.2	1 RES1 0.0
30 C13	-3.367241  -5.828393  0.236506 C.2	1 RES1 0.0
31 C14	-3.484251  -5.059438  -0.925639 C.2	1 RES1 0.0
32 C15	-2.785188  -3.876667  -1.056294 C.2	1 RES1 0.0
33 H11	-1.274153  -3.942867  1.852758 H	1 RES1 0.0
34 H12	-2.454867  -5.973432  2.125448 H	1 RES1 0.0
35 H13	-3.908688  -6.745815  0.336862 H	1 RES1 0.0
36 H14	-4.120582  -5.39058  -1.71957 H	1 RES1 0.0
37 H15	-2.862926  -3.312508  -1.962153 H	1 RES1 0.0
@<TRIPOS>BOND
1 1 2 1
1 1 14 1
1 1 26 1
1 2 3 1
1 3 4 1
1 3 8 1
1 4 5 1
1 4 9 1
1 5 6 2
1 5 10 1
1 6 7 1
1 6 11 1
1 7 8 2
1 7 12 1
1 8 13 1
1 14 15 1
1 15 16 1
1 15 20 1
1 16 17 1
1 16 21 1
1 17 18 2
1 17 22 1
1 18 19 1
1 18 23 1
1 19 20 2
1 19 24 1
1 20 25 1
1 26 27 1
1 27 28 1
1 27 32 1
1 28 29 1
1 28 33 1
1 29 30 2
1 29 34 1
1 30 31 1
1 30 35 1
1 31 32 2
1 31 36 1
1 32 37 1
@<TRIPOS>SUBSTRUCTURE
1 RES1 37

