@<TRIPOS>MOLECULE
/Users/abdulahmed/Documents/GitHub/HER-metal-complex-ligands/Runs//ni_oct_2_piperidine_6_s_1/ni_oct_2_piperidine_6_s_1
103	121	1
SMALL
PartialCharges
****
Generated from molSimplify

@<TRIPOS>ATOM
1 Ni1	0.0  0.0  0.0 Ni	1 RES1 0.0
2 N1	0.0  2.14  0.0 N.4	1 RES1 0.0
3 C1	-0.366107  2.797995  -1.255506 C.3	1 RES1 0.0
4 C2	0.782709  2.739078  -2.258723 C.3	1 RES1 0.0
5 C3	2.053894  3.354276  -1.676088 C.3	1 RES1 0.0
6 C4	2.368657  2.750633  -0.311506 C.3	1 RES1 0.0
7 C5	1.153903  2.802237  0.612844 C.3	1 RES1 0.0
8 H1	-0.787796  2.16876  0.642662 H	1 RES1 0.0
9 H2	-0.656043  3.841388  -1.063537 H	1 RES1 0.0
10 H3	-1.241326  2.294347  -1.676855 H	1 RES1 0.0
11 H4	0.501551  3.266086  -3.175683 H	1 RES1 0.0
12 H5	0.976553  1.694551  -2.534259 H	1 RES1 0.0
13 H6	2.893458  3.199905  -2.360998 H	1 RES1 0.0
14 H7	1.916211  4.437791  -1.572218 H	1 RES1 0.0
15 H8	2.688639  1.708519  -0.438879 H	1 RES1 0.0
16 H9	3.206332  3.287615  0.146977 H	1 RES1 0.0
17 H10	1.394025  2.301193  1.55869 H	1 RES1 0.0
18 H11	0.905263  3.840689  0.857287 H	1 RES1 0.0
19 N2	2.14  0.0  0.0 N.4	1 RES1 0.0
20 C6	2.797995  0.277635  -1.277986 C.3	1 RES1 0.0
21 C7	2.739078  -0.938363  -2.198622 C.3	1 RES1 0.0
22 C8	3.354276  -2.165808  -1.528733 C.3	1 RES1 0.0
23 C9	2.750633  -2.384617  -0.145518 C.3	1 RES1 0.0
24 C10	2.802237  -1.108342  0.691843 C.3	1 RES1 0.0
25 H12	2.16876  0.830707  0.586143 H	1 RES1 0.0
26 H13	3.841388  0.580256  -1.106709 H	1 RES1 0.0
27 H14	2.294347  1.121331  -1.759361 H	1 RES1 0.0
28 H15	3.266086  -0.721854  -3.132961 H	1 RES1 0.0
29 H16	1.694551  -1.150955  -2.459964 H	1 RES1 0.0
30 H17	3.199905  -3.051105  -2.15341 H	1 RES1 0.0
31 H18	4.437791  -2.021215  -1.43472 H	1 RES1 0.0
32 H19	1.708519  -2.712704  -0.25026 H	1 RES1 0.0
33 H20	3.287615  -3.188269  0.370281 H	1 RES1 0.0
34 H21	2.301193  -1.281901  1.652136 H	1 RES1 0.0
35 H22	3.840689  -0.843257  0.918347 H	1 RES1 0.0
36 N3	0.0  -2.14  0.0 N.4	1 RES1 0.0
37 C11	0.452795  -2.797995  -1.226909 C.3	1 RES1 0.0
38 C12	-0.623242  -2.739078  -2.30782 C.3	1 RES1 0.0
39 C13	-1.931972  -3.354276  -1.815277 C.3	1 RES1 0.0
40 C14	-2.341158  -2.750633  -0.475977 C.3	1 RES1 0.0
41 C15	-1.193842  -2.802237  0.530859 C.3	1 RES1 0.0
42 H23	0.741047  -2.16876  0.69605 H	1 RES1 0.0
43 H24	0.728633  -3.841388  -1.015183 H	1 RES1 0.0
44 H25	1.355274  -2.294347  -1.58618 H	1 RES1 0.0
45 H26	-0.278805  -3.266086  -3.202934 H	1 RES1 0.0
46 H27	-0.797393  -1.694551  -2.596206 H	1 RES1 0.0
47 H28	-2.721715  -3.199905  -2.557084 H	1 RES1 0.0
48 H29	-1.80187  -4.437791  -1.702056 H	1 RES1 0.0
49 H30	-2.651475  -1.708519  -0.62536 H	1 RES1 0.0
50 H31	-3.208774  -3.287615  -0.077043 H	1 RES1 0.0
51 H32	-1.499358  -2.301193  1.457651 H	1 RES1 0.0
52 H33	-0.962859  -3.840689  0.792051 H	1 RES1 0.0
53 N4	-2.14  0.0  0.0 N.4	1 RES1 0.0
54 C16	-2.797995  -0.232865  -1.286897 C.3	1 RES1 0.0
55 C17	-2.739078  1.014522  -2.164534 C.3	1 RES1 0.0
56 C18	-3.354276  2.217841  -1.452216 C.3	1 RES1 0.0
57 C19	-2.750633  2.388243  -0.062208 C.3	1 RES1 0.0
58 C20	-2.802237  1.083522  0.730103 C.3	1 RES1 0.0
59 H34	-2.16876  -0.850657  0.556794 H	1 RES1 0.0
60 H35	-3.841388  -0.541279  -1.126286 H	1 RES1 0.0
61 H36	-2.294347  -1.059247  -1.797423 H	1 RES1 0.0
62 H37	-3.266086  0.830753  -3.10586 H	1 RES1 0.0
63 H38	-1.694551  1.236105  -2.418298 H	1 RES1 0.0
64 H39	-3.199905  3.124399  -2.045616 H	1 RES1 0.0
65 H40	-4.437791  2.070055  -1.363307 H	1 RES1 0.0
66 H41	-1.708519  2.719785  -0.155436 H	1 RES1 0.0
67 H42	-3.287615  3.173404  0.481325 H	1 RES1 0.0
68 H43	-2.301193  1.223461  1.695867 H	1 RES1 0.0
69 H44	-3.840689  0.810693  0.947217 H	1 RES1 0.0
70 N5	0.0  0.0  2.14 N.4	1 RES1 0.0
71 C21	-0.936669  -0.912678  2.797995 C.3	1 RES1 0.0
72 C22	-2.361794  -0.369315  2.739078 C.3	1 RES1 0.0
73 C23	-2.444142  1.026605  3.354276 C.3	1 RES1 0.0
74 C24	-1.387061  1.945157  2.750633 C.3	1 RES1 0.0
75 C25	-0.000615  1.306549  2.802237 C.3	1 RES1 0.0
76 H45	0.937285  -0.393871  2.16876 H	1 RES1 0.0
77 H46	-0.631054  -1.078552  3.841388 H	1 RES1 0.0
78 H47	-0.897808  -1.883262  2.294347 H	1 RES1 0.0
79 H48	-3.039426  -1.048049  3.266086 H	1 RES1 0.0
80 H49	-2.696081  -0.327517  1.694551 H	1 RES1 0.0
81 H50	-3.443034  1.44635  3.199905 H	1 RES1 0.0
82 H51	-2.287792  0.953802  4.437791 H	1 RES1 0.0
83 H52	-1.649747  2.167886  1.708519 H	1 RES1 0.0
84 H53	-1.375509  2.900025  3.287615 H	1 RES1 0.0
85 H54	0.721787  1.962612  2.301193 H	1 RES1 0.0
86 H55	0.331945  1.201772  3.840689 H	1 RES1 0.0
87 N6	0.0  0.0  -2.14 N.4	1 RES1 0.0
88 C26	-0.832343  1.00873  -2.797995 C.3	1 RES1 0.0
89 C27	-2.307921  0.622867  -2.739078 C.3	1 RES1 0.0
90 C28	-2.540929  -0.75593  -3.354276 C.3	1 RES1 0.0
91 C29	-1.589518  -1.783538  -2.750633 C.3	1 RES1 0.0
92 C30	-0.142078  -1.298801  -2.802237 C.3	1 RES1 0.0
93 H56	0.974421  0.290071  -2.16876 H	1 RES1 0.0
94 H57	-0.510564  1.140538  -3.841388 H	1 RES1 0.0
95 H58	-0.68862  1.9694  -2.294347 H	1 RES1 0.0
96 H59	-2.908079  1.370981  -3.266086 H	1 RES1 0.0
97 H60	-2.644769  0.61751  -1.694551 H	1 RES1 0.0
98 H61	-3.579396  -1.065053  -3.199905 H	1 RES1 0.0
99 H62	-2.377615  -0.700484  -4.437791 H	1 RES1 0.0
100 H63	-1.874775  -1.976515  -1.708519 H	1 RES1 0.0
101 H64	-1.681422  -2.734042  -3.287615 H	1 RES1 0.0
102 H65	0.505042  -2.029225  -2.301193 H	1 RES1 0.0
103 H66	0.199871  -1.230648  -3.840689 H	1 RES1 0.0
@<TRIPOS>BOND
1 1 2 1
1 1 19 1
1 1 36 1
1 1 53 1
1 1 70 1
1 1 87 1
1 2 3 1
1 2 7 1
1 2 8 1
1 3 4 1
1 3 9 1
1 3 10 1
1 4 5 1
1 4 11 1
1 4 12 1
1 5 6 1
1 5 13 1
1 5 14 1
1 6 7 1
1 6 15 1
1 6 16 1
1 7 17 1
1 7 18 1
1 19 20 1
1 19 24 1
1 19 25 1
1 20 21 1
1 20 26 1
1 20 27 1
1 21 22 1
1 21 28 1
1 21 29 1
1 22 23 1
1 22 30 1
1 22 31 1
1 23 24 1
1 23 32 1
1 23 33 1
1 24 34 1
1 24 35 1
1 36 37 1
1 36 41 1
1 36 42 1
1 37 38 1
1 37 43 1
1 37 44 1
1 38 39 1
1 38 45 1
1 38 46 1
1 38 91 1
1 38 92 1
1 39 40 1
1 39 47 1
1 39 48 1
1 40 41 1
1 40 49 1
1 40 50 1
1 41 51 1
1 41 52 1
1 46 91 1
1 46 92 1
1 53 54 1
1 53 58 1
1 53 59 1
1 54 55 1
1 54 60 1
1 54 61 1
1 54 89 1
1 54 97 1
1 55 56 1
1 55 62 1
1 55 63 1
1 55 89 1
1 55 96 1
1 55 97 1
1 56 57 1
1 56 64 1
1 56 65 1
1 57 58 1
1 57 66 1
1 57 67 1
1 58 68 1
1 58 69 1
1 62 89 1
1 62 96 1
1 63 88 1
1 63 89 1
1 70 71 1
1 70 75 1
1 70 76 1
1 71 72 1
1 71 77 1
1 71 78 1
1 72 73 1
1 72 79 1
1 72 80 1
1 73 74 1
1 73 81 1
1 73 82 1
1 74 75 1
1 74 83 1
1 74 84 1
1 75 85 1
1 75 86 1
1 87 88 1
1 87 92 1
1 87 93 1
1 88 89 1
1 88 94 1
1 88 95 1
1 89 90 1
1 89 96 1
1 89 97 1
1 90 91 1
1 90 98 1
1 90 99 1
1 91 92 1
1 91 100 1
1 91 101 1
1 92 102 1
1 92 103 1
@<TRIPOS>SUBSTRUCTURE
1 RES1 103

