@<TRIPOS>MOLECULE
/Users/abdulahmed/Documents/GitHub/HER-metal-complex-ligands/Runs//ethanolamine_hydride/ethanolamine_hydride
21	22	3
SMALL
PartialCharges
****
Generated from molSimplify

@<TRIPOS>ATOM
1 Ni1	0.0  0.0  0.0 Ni	1 RES1 0.0
2 N1	0.0  2.14  0.0 N.3	1 RES1 0.0
3 C1	1.415382  2.31144  0.344664 C.3	1 RES1 0.0
4 C2	2.324677  1.312288  -0.430539 C.3	1 RES1 0.0
5 O1	2.054028  0.085972  0.0 O.3	1 RES1 0.0
6 H1	-0.141626  1.120113  -0.022723 H	1 RES1 0.0
7 H2	1.734529  3.331232  0.09247 H	1 RES1 0.0
8 H3	1.5703  2.208099  1.427732 H	1 RES1 0.0
9 H4	3.347502  1.69286  -0.276702 H	1 RES1 0.0
10 H5	2.172616  1.536449  -1.49921 H	1 RES1 0.0
11 N2	0.0  -2.14  0.0 N.3	1 RES1 0.0
12 C3	0.344664  -2.31144  1.415382 C.3	1 RES1 0.0
13 C4	-0.430539  -1.312288  2.324677 C.3	1 RES1 0.0
14 O2	0.0  -0.085972  2.054028 O.3	1 RES1 0.0
15 H6	-0.022723  -1.120113  -0.141626 H	1 RES1 0.0
16 H7	0.09247  -3.331232  1.734529 H	1 RES1 0.0
17 H8	1.427732  -2.208099  1.5703 H	1 RES1 0.0
18 H9	-0.276702  -1.69286  3.347502 H	1 RES1 0.0
19 H10	-1.49921  -1.536449  2.172616 H	1 RES1 0.0
20 H11	-1.58  0.0  0.0 H	2 RES2 0.0
21 H12	0.0  0.0  -1.58 H	3 RES3 0.0
@<TRIPOS>BOND
1 1 2 1
1 1 4 1
1 1 5 1
1 1 11 1
1 1 13 1
1 1 14 1
1 2 3 1
1 2 6 1
1 3 4 1
1 3 7 1
1 3 8 1
1 4 5 1
1 4 9 1
1 4 10 1
1 11 12 1
1 11 15 1
1 12 13 1
1 12 16 1
1 12 17 1
1 13 14 1
1 13 18 1
1 13 19 1
@<TRIPOS>SUBSTRUCTURE
1 RES1 19
2 RES2 1
3 RES3 1

