@<TRIPOS>MOLECULE
/Users/abdulahmed/Documents/GitHub/HER-metal-complex-ligands/Runs//2_amino_4_trifluoromethylbenzenethiolhydrochloride/2_amino_4_trifluoromethylbenzenethiolhydrochloride
49	54	1
SMALL
PartialCharges
****
Generated from molSimplify

@<TRIPOS>ATOM
1 Ni1	0.0  0.0  0.0 Ni	1 RES1 0.0
2 N1	-0.0  2.14  0.0 N.pl3	1 RES1 0.0
3 C1	1.293349  2.533984  0.039068 C.ar	1 RES1 0.0
4 C2	1.587994  3.910587  0.077763 C.ar	1 RES1 0.0
5 C3	2.902713  4.404975  0.11965 C.ar	1 RES1 0.0
6 C4	3.964765  3.497985  0.12324 C.ar	1 RES1 0.0
7 C5	3.708818  2.128609  0.085608 C.ar	1 RES1 0.0
8 C6	2.393031  1.644087  0.043925 C.ar	1 RES1 0.0
9 S1	2.220342  -0.080342  -0.0 S.3	1 RES1 0.0
10 C7	3.137416  5.880133  0.159239 C.3	1 RES1 0.0
11 F1	2.639149  6.551135  -0.924048 F	1 RES1 0.0
12 F2	2.588854  6.50084  1.248196 F	1 RES1 0.0
13 F3	4.464317  6.228779  0.198034 F	1 RES1 0.0
14 H1	-0.596044  2.970242  0.005423 H	1 RES1 0.0
15 H2	0.758245  4.614356  0.074846 H	1 RES1 0.0
16 H3	4.993078  3.838845  0.154941 H	1 RES1 0.0
17 H4	4.539837  1.429908  0.088672 H	1 RES1 0.0
18 N2	0.0  -2.14  0.0 N.pl3	1 RES1 0.0
19 C8	0.039068  -2.533984  1.293349 C.ar	1 RES1 0.0
20 C9	0.077763  -3.910587  1.587994 C.ar	1 RES1 0.0
21 C10	0.11965  -4.404975  2.902713 C.ar	1 RES1 0.0
22 C11	0.12324  -3.497985  3.964765 C.ar	1 RES1 0.0
23 C12	0.085608  -2.128609  3.708818 C.ar	1 RES1 0.0
24 C13	0.043925  -1.644087  2.393031 C.ar	1 RES1 0.0
25 S2	-0.0  0.080342  2.220342 S.3	1 RES1 0.0
26 C14	0.159239  -5.880133  3.137416 C.3	1 RES1 0.0
27 F4	-0.924048  -6.551135  2.639149 F	1 RES1 0.0
28 F5	1.248196  -6.50084  2.588854 F	1 RES1 0.0
29 F6	0.198034  -6.228779  4.464317 F	1 RES1 0.0
30 H5	0.005423  -2.970242  -0.596044 H	1 RES1 0.0
31 H6	0.074846  -4.614356  0.758245 H	1 RES1 0.0
32 H7	0.154941  -3.838845  4.993078 H	1 RES1 0.0
33 H8	0.088672  -1.429908  4.539837 H	1 RES1 0.0
34 N3	-2.14  0.0  0.0 N.pl3	1 RES1 0.0
35 C15	-2.533984  0.039068  -1.293349 C.ar	1 RES1 0.0
36 C16	-3.910587  0.077763  -1.587994 C.ar	1 RES1 0.0
37 C17	-4.404975  0.11965  -2.902713 C.ar	1 RES1 0.0
38 C18	-3.497985  0.12324  -3.964765 C.ar	1 RES1 0.0
39 C19	-2.128609  0.085608  -3.708818 C.ar	1 RES1 0.0
40 C20	-1.644087  0.043925  -2.393031 C.ar	1 RES1 0.0
41 S3	0.080342  -0.0  -2.220342 S.3	1 RES1 0.0
42 C21	-5.880133  0.159239  -3.137416 C.3	1 RES1 0.0
43 F7	-6.551135  -0.924048  -2.639149 F	1 RES1 0.0
44 F8	-6.50084  1.248196  -2.588854 F	1 RES1 0.0
45 F9	-6.228779  0.198034  -4.464317 F	1 RES1 0.0
46 H9	-2.970242  0.005423  0.596044 H	1 RES1 0.0
47 H10	-4.614356  0.074846  -0.758245 H	1 RES1 0.0
48 H11	-3.838845  0.154941  -4.993078 H	1 RES1 0.0
49 H12	-1.429908  0.088672  -4.539837 H	1 RES1 0.0
@<TRIPOS>BOND
1 1 2 1
1 1 9 1
1 1 18 1
1 1 25 1
1 1 34 1
1 1 41 1
1 2 3 1
1 2 14 1
1 3 4 2
1 3 8 1
1 4 5 1
1 4 15 1
1 5 6 2
1 5 10 1
1 6 7 1
1 6 16 1
1 7 8 2
1 7 17 1
1 8 9 1
1 10 11 1
1 10 12 1
1 10 13 1
1 18 19 1
1 18 30 1
1 19 20 2
1 19 24 1
1 20 21 1
1 20 31 1
1 21 22 2
1 21 26 1
1 22 23 1
1 22 32 1
1 23 24 2
1 23 33 1
1 24 25 1
1 26 27 1
1 26 28 1
1 26 29 1
1 34 35 1
1 34 46 1
1 35 36 2
1 35 40 1
1 36 37 1
1 36 47 1
1 37 38 2
1 37 42 1
1 38 39 1
1 38 48 1
1 39 40 2
1 39 49 1
1 40 41 1
1 42 43 1
1 42 44 1
1 42 45 1
@<TRIPOS>SUBSTRUCTURE
1 RES1 49

