@<TRIPOS>MOLECULE
/Users/abdulahmed/Documents/GitHub/HER-metal-complex-ligands/Runs//ni_oct_2_2_6difluoropyridine_6_s_1/ni_oct_2_2_6difluoropyridine_6_s_1_conf_1
67	75	1
SMALL
PartialCharges
****
Generated from molSimplify

@<TRIPOS>ATOM
1 Ni1	0.0  0.0  0.0 Ni	1 RES1 0.0
2 F1	-2.297005  2.009565  0.009592 F	1 RES1 0.0
3 C1	-1.177341  2.727377  0.009567 C.3	1 RES1 0.0
4 C2	-1.222044  4.117271  0.019653 C.2	1 RES1 0.0
5 C3	-0.079882  4.782087  0.519059 C.2	1 RES1 0.0
6 C4	1.150301  4.18728  0.244476 C.2	1 RES1 0.0
7 C5	1.177341  2.896085  -0.009567 C.2	1 RES1 0.0
8 F2	2.337121  2.303208  -0.278465 F	1 RES1 0.0
9 N1	-0.0  2.14  0.0 N.pl3	1 RES1 0.0
10 H1	-2.077219  4.655321  -0.332593 H	1 RES1 0.0
11 H2	-0.155097  5.691879  1.077201 H	1 RES1 0.0
12 H3	2.050351  4.765893  0.240298 H	1 RES1 0.0
13 F3	2.009565  -0.565003  2.226453 F	1 RES1 0.0
14 C6	2.727377  -0.294108  1.140055 C.3	1 RES1 0.0
15 C7	4.117271  -0.314708  1.180989 C.2	1 RES1 0.0
16 C8	4.782087  -0.522966  -0.048063 C.2	1 RES1 0.0
17 C9	4.18728  0.041069  -1.175277 C.2	1 RES1 0.0
18 C10	2.896085  0.294108  -1.140055 C.2	1 RES1 0.0
19 F4	2.303208  0.835594  -2.200332 F	1 RES1 0.0
20 N2	2.14  0.0  0.0 N.pl3	1 RES1 0.0
21 H4	4.655321  -0.179812  2.095978 H	1 RES1 0.0
22 H5	5.691879  -1.082725  -0.110108 H	1 RES1 0.0
23 H6	4.765893  0.262865  -2.047581 H	1 RES1 0.0
24 F5	-0.565003  -2.009565  2.226453 F	1 RES1 0.0
25 C11	-0.294108  -2.727377  1.140055 C.3	1 RES1 0.0
26 C12	-0.314708  -4.117271  1.180989 C.2	1 RES1 0.0
27 C13	-0.522966  -4.782087  -0.048063 C.2	1 RES1 0.0
28 C14	0.041069  -4.18728  -1.175277 C.2	1 RES1 0.0
29 C15	0.294108  -2.896085  -1.140055 C.2	1 RES1 0.0
30 F6	0.835594  -2.303208  -2.200332 F	1 RES1 0.0
31 N3	0.0  -2.14  0.0 N.pl3	1 RES1 0.0
32 H7	-0.179812  -4.655321  2.095978 H	1 RES1 0.0
33 H8	-1.082725  -5.691879  -0.110108 H	1 RES1 0.0
34 H9	0.262865  -4.765893  -2.047581 H	1 RES1 0.0
35 F7	-2.009565  0.718936  2.181617 F	1 RES1 0.0
36 C16	-2.727377  0.372917  1.116762 C.3	1 RES1 0.0
37 C17	-4.117271  0.396323  1.15616 C.2	1 RES1 0.0
38 C18	-4.782087  0.51834  -0.084426 C.2	1 RES1 0.0
39 C19	-4.18728  -0.122952  -1.169549 C.2	1 RES1 0.0
40 C20	-2.896085  -0.372917  -1.116762 C.2	1 RES1 0.0
41 F8	-2.303208  -0.987046  -2.136684 F	1 RES1 0.0
42 N4	-2.14  0.0  0.0 N.pl3	1 RES1 0.0
43 H10	-4.655321  0.325582  2.07833 H	1 RES1 0.0
44 H11	-5.691879  1.072406  -0.185367 H	1 RES1 0.0
45 H12	-4.765893  -0.405056  -2.024256 H	1 RES1 0.0
46 F9	-2.023632  -1.086848  2.009565 F	1 RES1 0.0
47 C21	-1.035039  -0.561176  2.727377 C.3	1 RES1 0.0
48 C22	-1.069774  -0.591067  4.117271 C.3	1 RES1 0.0
49 C23	0.173152  -0.495804  4.782087 C.3	1 RES1 0.0
50 C24	1.13043  0.324174  4.18728 C.3	1 RES1 0.0
51 C25	1.035039  0.561176  2.896085 C.3	1 RES1 0.0
52 F10	1.932824  1.343082  2.303208 F	1 RES1 0.0
53 N5	0.0  0.0  2.14 N.3	1 RES1 0.0
54 H13	-1.990218  -0.681533  4.655321 H	1 RES1 0.0
55 H14	0.368772  -1.023926  5.691879 H	1 RES1 0.0
56 H15	1.923166  0.750411  4.765893 H	1 RES1 0.0
57 F11	2.065183  -1.005656  -2.009565 F	1 RES1 0.0
58 C26	1.056501  -0.519644  -2.727377 C.3	1 RES1 0.0
59 C27	1.092395  -0.548133  -4.117271 C.2	1 RES1 0.0
60 C28	-0.153333  -0.502287  -4.782087 C.2	1 RES1 0.0
61 C29	-1.142408  0.279043  -4.18728 C.2	1 RES1 0.0
62 C30	-1.056501  0.519644  -2.896085 C.2	1 RES1 0.0
63 F12	-1.984619  1.265293  -2.303208 F	1 RES1 0.0
64 N6	0.0  -0.0  -2.14 N.pl3	1 RES1 0.0
65 H16	2.015705  -0.601988  -4.655321 H	1 RES1 0.0
66 H17	-0.327833  -1.037758  -5.691879 H	1 RES1 0.0
67 H18	-1.95144  0.673473  -4.765893 H	1 RES1 0.0
@<TRIPOS>BOND
1 1 9 1
1 1 20 1
1 1 31 1
1 1 42 1
1 1 53 1
1 1 64 1
1 2 3 1
1 3 4 1
1 3 9 1
1 4 5 2
1 4 10 1
1 5 6 1
1 5 11 1
1 6 7 2
1 6 12 1
1 7 8 1
1 7 9 1
1 13 14 1
1 13 51 1
1 14 15 1
1 14 20 1
1 15 16 2
1 15 21 1
1 16 17 1
1 16 22 1
1 17 18 2
1 17 23 1
1 18 19 1
1 18 20 1
1 24 25 1
1 24 47 1
1 25 26 1
1 25 31 1
1 26 27 2
1 26 32 1
1 27 28 1
1 27 33 1
1 28 29 2
1 28 34 1
1 29 30 1
1 29 31 1
1 35 36 1
1 35 47 1
1 36 37 1
1 36 42 1
1 37 38 2
1 37 43 1
1 38 39 1
1 38 44 1
1 39 40 2
1 39 45 1
1 40 41 1
1 40 42 1
1 46 47 1
1 47 48 1
1 47 53 1
1 48 49 1
1 48 54 1
1 49 50 1
1 49 55 1
1 50 51 1
1 50 56 1
1 51 52 1
1 51 53 1
1 57 58 1
1 58 59 1
1 58 64 1
1 59 60 2
1 59 65 1
1 60 61 1
1 60 66 1
1 61 62 2
1 61 67 1
1 62 63 1
1 62 64 1
@<TRIPOS>SUBSTRUCTURE
1 RES1 67

