@<TRIPOS>MOLECULE
/Users/abdulahmed/Documents/GitHub/HER-metal-complex-ligands/Runs//2_mercaptonicotinic_acid/2_mercaptonicotinic_acid
40	45	1
SMALL
PartialCharges
****
Generated from molSimplify

@<TRIPOS>ATOM
1 Ni1	0.0  0.0  0.0 Ni	1 RES1 0.0
2 O1	4.298013  4.436126  0.403478 O.co2	1 RES1 0.0
3 C1	3.792605  3.291582  0.082071 C.2	1 RES1 0.0
4 O2	4.535926  2.315038  -0.249085 O.co2	1 RES1 0.0
5 C2	2.25614  3.236239  0.044249 C.2	1 RES1 0.0
6 C3	1.618635  4.511215  0.0542 C.2	1 RES1 0.0
7 C4	0.238527  4.66746  0.037596 C.2	1 RES1 0.0
8 C5	-0.519645  3.525823  0.012324 C.3	1 RES1 0.0
9 N1	0.0  2.289909  0.0 N.pl3	1 RES1 0.0
10 C6	1.374404  2.139704  0.00975 C.2	1 RES1 0.0
11 S1	1.836555  0.453353  0.0 S.3	1 RES1 0.0
12 H1	2.239738  5.404882  0.078955 H	1 RES1 0.0
13 H2	-0.211727  5.648461  0.049606 H	1 RES1 0.0
14 H3	-1.60129  3.563847  0.002237 H	1 RES1 0.0
15 O3	0.403478  -4.436126  4.298013 O.co2	1 RES1 0.0
16 C7	0.082071  -3.291582  3.792605 C.2	1 RES1 0.0
17 O4	-0.249085  -2.315038  4.535926 O.co2	1 RES1 0.0
18 C8	0.044249  -3.236239  2.25614 C.2	1 RES1 0.0
19 C9	0.0542  -4.511215  1.618635 C.2	1 RES1 0.0
20 C10	0.037596  -4.66746  0.238527 C.2	1 RES1 0.0
21 C11	0.012324  -3.525823  -0.519645 C.3	1 RES1 0.0
22 N2	-0.0  -2.289909  0.0 N.pl3	1 RES1 0.0
23 C12	0.00975  -2.139704  1.374404 C.2	1 RES1 0.0
24 S2	-0.0  -0.453353  1.836555 S.3	1 RES1 0.0
25 H4	0.078955  -5.404882  2.239738 H	1 RES1 0.0
26 H5	0.049606  -5.648461  -0.211727 H	1 RES1 0.0
27 H6	0.002237  -3.563847  -1.60129 H	1 RES1 0.0
28 O5	-4.436126  0.403478  -4.298013 O.co2	1 RES1 0.0
29 C13	-3.291582  0.082071  -3.792605 C.2	1 RES1 0.0
30 O6	-2.315038  -0.249085  -4.535926 O.co2	1 RES1 0.0
31 C14	-3.236239  0.044249  -2.25614 C.2	1 RES1 0.0
32 C15	-4.511215  0.0542  -1.618635 C.2	1 RES1 0.0
33 C16	-4.66746  0.037596  -0.238527 C.2	1 RES1 0.0
34 C17	-3.525823  0.012324  0.519645 C.3	1 RES1 0.0
35 N3	-2.289909  0.0  0.0 N.pl3	1 RES1 0.0
36 C18	-2.139704  0.00975  -1.374404 C.2	1 RES1 0.0
37 S3	-0.453353  -0.0  -1.836555 S.3	1 RES1 0.0
38 H7	-5.404882  0.078955  -2.239738 H	1 RES1 0.0
39 H8	-5.648461  0.049606  0.211727 H	1 RES1 0.0
40 H9	-3.563847  0.002237  1.60129 H	1 RES1 0.0
@<TRIPOS>BOND
1 1 9 1
1 1 11 1
1 1 22 1
1 1 24 1
1 1 35 1
1 1 37 1
1 2 3 2
1 3 4 1
1 3 5 1
1 5 6 1
1 5 10 2
1 6 7 2
1 6 12 1
1 7 8 1
1 7 13 1
1 8 9 1
1 8 14 1
1 9 10 1
1 10 11 1
1 15 16 2
1 16 17 1
1 16 18 1
1 18 19 1
1 18 23 2
1 19 20 2
1 19 25 1
1 20 21 1
1 20 26 1
1 21 22 1
1 21 27 1
1 22 23 1
1 23 24 1
1 28 29 2
1 29 30 1
1 29 31 1
1 31 32 1
1 31 36 2
1 32 33 2
1 32 38 1
1 33 34 1
1 33 39 1
1 34 35 1
1 34 40 1
1 35 36 1
1 36 37 1
@<TRIPOS>SUBSTRUCTURE
1 RES1 40

