@<TRIPOS>MOLECULE
/Users/abdulahmed/Documents/GitHub/HER-metal-complex-ligands/Runs//ni_oct_2_2bromoethylaminehydrobromide_6_s_1/badjob_ni_oct_2_2bromoethylaminehydrobromide_6_s_1_conf_1
73	141	1
SMALL
PartialCharges
****
Generated from molSimplify

@<TRIPOS>ATOM
1 Ni1	0.0  0.0  0.0 Ni	1 RES1 0.0
2 H1	-0.087723  2.229291  0.033564 H	1 RES1 0.0
3 Br1	-0.079941  2.093139  -0.064154 Br	1 RES1 0.0
4 N1	0.0  2.14  0.0 N.3	1 RES1 0.0
5 C1	-0.637485  2.821294  -1.135936 C.3	1 RES1 0.0
6 C2	0.025554  2.37769  -2.429765 C.3	1 RES1 0.0
7 Br2	-0.174408  0.438748  -2.634996 Br	1 RES1 0.0
8 H2	-0.104059  1.130958  -0.106799 H	1 RES1 0.0
9 H3	0.991334  2.378622  0.026773 H	1 RES1 0.0
10 H4	-1.677413  2.570972  -1.164024 H	1 RES1 0.0
11 H5	-0.528323  3.879798  -1.023897 H	1 RES1 0.0
12 H6	-0.438465  2.8736  -3.256602 H	1 RES1 0.0
13 H7	1.065482  2.628012  -2.401677 H	1 RES1 0.0
14 H8	2.229291  -0.041075  -0.084467 H	1 RES1 0.0
15 Br3	2.093139  -0.102201  -0.007832 Br	1 RES1 0.0
16 N2	2.14  0.0  0.0 N.3	1 RES1 0.0
17 C3	2.821294  -1.241827  0.393197 C.3	1 RES1 0.0
18 C4	2.37769  -1.642465  1.790733 C.3	1 RES1 0.0
19 Br4	0.438748  -1.928705  1.803807 Br	1 RES1 0.0
20 H9	1.130958  -0.148956  0.006803 H	1 RES1 0.0
21 H10	2.378622  0.741787  0.658188 H	1 RES1 0.0
22 H11	2.570972  -2.019977  -0.297253 H	1 RES1 0.0
23 H12	3.879798  -1.085564  0.386059 H	1 RES1 0.0
24 H13	2.8736  -2.546379  2.076937 H	1 RES1 0.0
25 H14	2.628012  -0.864314  2.481182 H	1 RES1 0.0
26 H15	-0.027329  -2.229291  -0.089861 H	1 RES1 0.0
27 Br5	-0.09971  -2.093139  -0.023753 Br	1 RES1 0.0
28 N3	-0.0  -2.14  0.0 N.3	1 RES1 0.0
29 C5	-1.288106  -2.821294  0.193706 C.3	1 RES1 0.0
30 C6	-1.902828  -2.37769  1.511178 C.3	1 RES1 0.0
31 Br6	-2.18758  -0.438748  1.479228 Br	1 RES1 0.0
32 H16	-0.148182  -1.130958  -0.016627 H	1 RES1 0.0
33 H17	0.629462  -2.378622  0.766314 H	1 RES1 0.0
34 H18	-1.948424  -2.570972  -0.610171 H	1 RES1 0.0
35 H19	-1.132655  -3.879798  0.211148 H	1 RES1 0.0
36 H20	-2.840428  -2.8736  1.652174 H	1 RES1 0.0
37 H21	-1.242508  -2.628012  2.315054 H	1 RES1 0.0
38 H22	-2.229291  0.061763  -0.070762 H	1 RES1 0.0
39 Br7	-2.093139  0.100685  0.019206 Br	1 RES1 0.0
40 N4	-2.14  0.0  0.0 N.3	1 RES1 0.0
41 C7	-2.821294  1.095513  0.704691 C.3	1 RES1 0.0
42 C8	-2.37769  1.116173  2.158372 C.3	1 RES1 0.0
43 Br8	-0.438748  1.388999  2.245953 Br	1 RES1 0.0
44 H23	-1.130958  0.141976  0.045575 H	1 RES1 0.0
45 H24	-2.378622  -0.888268  0.440953 H	1 RES1 0.0
46 H25	-2.570972  2.027324  0.242125 H	1 RES1 0.0
47 H26	-3.879798  0.946573  0.65688 H	1 RES1 0.0
48 H27	-2.8736  1.913586  2.67131 H	1 RES1 0.0
49 H28	-2.628012  0.184361  2.620938 H	1 RES1 0.0
50 H29	0.053047  0.077511  2.229291 H	1 RES1 0.0
51 Br9	0.102242  -0.007278  2.093139 Br	1 RES1 0.0
52 N5	0.0  0.0  2.14 N.3	1 RES1 0.0
53 C9	1.170525  -0.571498  2.821294 C.3	1 RES1 0.0
54 C10	1.361344  -2.012748  2.37769 C.3	1 RES1 0.0
55 Br10	1.642551  -2.067764  0.438748 Br	1 RES1 0.0
56 H30	0.146338  -0.028628  1.130958 H	1 RES1 0.0
57 H31	-0.830493  -0.541979  2.378622 H	1 RES1 0.0
58 H32	2.041729  -0.002953  2.570972 H	1 RES1 0.0
59 H33	1.017009  -0.541464  3.879798 H	1 RES1 0.0
60 H34	2.213358  -2.428736  2.8736 H	1 RES1 0.0
61 H35	0.490139  -2.581292  2.628012 H	1 RES1 0.0
62 H36	-0.048607  -0.08037  -2.229291 H	1 RES1 0.0
63 Br11	0.04894  -0.090062  -2.093139 Br	1 RES1 0.0
64 N6	0.0  0.0  -2.14 N.3	1 RES1 0.0
65 C11	1.004692  -0.829055  -2.821294 C.3	1 RES1 0.0
66 C12	2.395693  -0.406288  -2.37769 C.3	1 RES1 0.0
67 Br12	2.562156  -0.639514  -0.438748 Br	1 RES1 0.0
68 H37	0.086625  -0.121369  -1.130958 H	1 RES1 0.0
69 H38	0.149676  0.980335  -2.378622 H	1 RES1 0.0
70 H39	0.84768  -1.857445  -2.570972 H	1 RES1 0.0
71 H40	0.913817  -0.701734  -3.879798 H	1 RES1 0.0
72 H41	3.126998  -1.009749  -2.8736 H	1 RES1 0.0
73 H42	2.552703  0.622103  -2.628012 H	1 RES1 0.0
@<TRIPOS>BOND
1 1 3 1
1 1 15 1
1 1 27 1
1 1 39 1
1 1 51 1
1 1 63 1
1 2 3 1
1 2 4 1
1 3 4 1
1 3 5 1
1 3 8 1
1 3 9 1
1 3 43 1
1 4 5 1
1 4 8 1
1 4 9 1
1 5 6 1
1 5 10 1
1 5 11 1
1 6 7 1
1 6 12 1
1 6 13 1
1 7 62 1
1 7 63 1
1 7 64 1
1 7 65 1
1 7 68 1
1 7 69 1
1 14 15 1
1 14 16 1
1 14 67 1
1 15 16 1
1 15 17 1
1 15 20 1
1 15 21 1
1 15 55 1
1 15 67 1
1 16 17 1
1 16 20 1
1 16 21 1
1 16 55 1
1 16 67 1
1 17 18 1
1 17 22 1
1 17 23 1
1 17 55 1
1 17 67 1
1 18 19 1
1 18 24 1
1 18 25 1
1 18 54 1
1 18 55 1
1 19 27 1
1 19 28 1
1 19 33 1
1 19 51 1
1 19 52 1
1 19 53 1
1 19 54 1
1 19 55 1
1 19 61 1
1 20 67 1
1 22 55 1
1 22 67 1
1 23 67 1
1 26 27 1
1 26 28 1
1 27 28 1
1 27 29 1
1 27 32 1
1 27 33 1
1 27 55 1
1 28 29 1
1 28 32 1
1 28 33 1
1 28 55 1
1 29 30 1
1 29 34 1
1 29 35 1
1 30 31 1
1 30 36 1
1 30 37 1
1 31 38 1
1 31 39 1
1 31 40 1
1 31 41 1
1 31 42 1
1 31 45 1
1 31 49 1
1 31 51 1
1 31 57 1
1 33 55 1
1 38 39 1
1 38 40 1
1 39 40 1
1 39 41 1
1 39 44 1
1 39 45 1
1 40 41 1
1 40 44 1
1 40 45 1
1 41 42 1
1 41 46 1
1 41 47 1
1 42 43 1
1 42 48 1
1 42 49 1
1 43 50 1
1 43 51 1
1 43 52 1
1 50 51 1
1 50 52 1
1 51 52 1
1 51 53 1
1 51 56 1
1 51 57 1
1 52 53 1
1 52 56 1
1 52 57 1
1 53 54 1
1 53 58 1
1 53 59 1
1 54 55 1
1 54 60 1
1 54 61 1
1 55 67 1
1 62 63 1
1 62 64 1
1 63 64 1
1 63 65 1
1 63 68 1
1 63 69 1
1 64 65 1
1 64 68 1
1 64 69 1
1 65 66 1
1 65 70 1
1 65 71 1
1 66 67 1
1 66 72 1
1 66 73 1
@<TRIPOS>SUBSTRUCTURE
1 RES1 73

