@<TRIPOS>MOLECULE
/Users/abdulahmed/Documents/GitHub/HER-metal-complex-ligands/Runs//ni_thd_2_triphenylmethanethiol_4_s_1/ni_thd_2_triphenylmethanethiol_4_s_1_conf_1
145	156	1
SMALL
PartialCharges
****
Generated from molSimplify

@<TRIPOS>ATOM
1 Ni1	0.0  0.0  0.0 Ni	1 RES1 0.0
2 S1	2.23  0.0  0.0 S.3	1 RES1 0.0
3 C1	3.545448  0.973037  -0.773883 C.3	1 RES1 0.0
4 C2	4.405856  1.610371  0.30496 C.ar	1 RES1 0.0
5 C3	3.76523  2.178733  1.393596 C.ar	1 RES1 0.0
6 C4	4.544684  3.13964  2.080007 C.ar	1 RES1 0.0
7 C5	5.855541  3.25704  1.970978 C.ar	1 RES1 0.0
8 C6	6.437607  2.615839  0.912909 C.ar	1 RES1 0.0
9 C7	5.711557  1.762682  0.117378 C.ar	1 RES1 0.0
10 C8	4.405853  0.065327  -1.637691 C.ar	1 RES1 0.0
11 C9	5.6398  -0.363203  -1.176927 C.ar	1 RES1 0.0
12 C10	6.458623  -0.93568  -2.178851 C.ar	1 RES1 0.0
13 C11	6.020105  -1.371999  -3.345617 C.ar	1 RES1 0.0
14 C12	4.766443  -0.968931  -3.713472 C.ar	1 RES1 0.0
15 C13	3.955876  -0.291299  -2.835013 C.ar	1 RES1 0.0
16 C14	2.929318  2.060549  -1.638812 C.ar	1 RES1 0.0
17 C15	3.012435  1.960544  -3.017817 C.ar	1 RES1 0.0
18 C16	2.672092  3.15221  -3.700569 C.ar	1 RES1 0.0
19 C17	1.997253  4.154305  -3.167263 C.ar	1 RES1 0.0
20 C18	1.892534  4.159684  -1.804012 C.ar	1 RES1 0.0
21 C19	2.321571  3.088493  -1.058109 C.ar	1 RES1 0.0
22 H1	2.781274  -0.973037  0.773883 H	1 RES1 0.0
23 H2	2.771106  1.915058  1.688711 H	1 RES1 0.0
24 H3	4.036696  3.818376  2.732821 H	1 RES1 0.0
25 H4	6.431164  3.823482  2.672905 H	1 RES1 0.0
26 H5	7.47343  2.780817  0.701359 H	1 RES1 0.0
27 H6	6.20274  1.216066  -0.660343 H	1 RES1 0.0
28 H7	5.946027  -0.269797  -0.155947 H	1 RES1 0.0
29 H8	7.505969  -1.021011  -1.977145 H	1 RES1 0.0
30 H9	6.613949  -2.006806  -3.969532 H	1 RES1 0.0
31 H10	4.411473  -1.1843  -4.699632 H	1 RES1 0.0
32 H11	2.952964  -0.048768  -3.11829 H	1 RES1 0.0
33 H12	3.307267  1.063516  -3.521121 H	1 RES1 0.0
34 H13	2.983125  3.24811  -4.719864 H	1 RES1 0.0
35 H14	1.556155  4.920796  -3.769613 H	1 RES1 0.0
36 H15	1.470398  5.010317  -1.310935 H	1 RES1 0.0
37 H16	2.164534  3.082573  0.000288 H	1 RES1 0.0
38 S2	-0.743378  2.102448  0.0 S.3	1 RES1 0.0
39 C20	-2.136107  3.005264  0.722032 C.3	1 RES1 0.0
40 C21	-1.610818  4.103603  1.632046 C.ar	1 RES1 0.0
41 C22	-0.558356  3.796238  2.478459 C.ar	1 RES1 0.0
42 C23	-0.445822  4.662769  3.591343 C.ar	1 RES1 0.0
43 C24	-1.01212  5.852923  3.674143 C.ar	1 RES1 0.0
44 C25	-1.998431  6.121564  2.766138 C.ar	1 RES1 0.0
45 C26	-2.255661  5.260516  1.726753 C.ar	1 RES1 0.0
46 C27	-2.969889  3.623062  -0.388613 C.ar	1 RES1 0.0
47 C28	-2.852286  4.973452  -0.673538 C.ar	1 RES1 0.0
48 C29	-3.884496  5.476986  -1.500006 C.ar	1 RES1 0.0
49 C30	-4.682343  4.729762  -2.241027 C.ar	1 RES1 0.0
50 C31	-4.702556  3.392896  -1.954968 C.ar	1 RES1 0.0
51 C32	-3.812318  2.847921  -1.06145 C.ar	1 RES1 0.0
52 C33	-2.997198  2.047293  1.529009 C.ar	1 RES1 0.0
53 C34	-4.248681  1.692956  1.052773 C.ar	1 RES1 0.0
54 C35	-5.06367  1.043803  2.010084 C.ar	1 RES1 0.0
55 C36	-4.615802  0.486379  3.120358 C.ar	1 RES1 0.0
56 C37	-3.346804  0.823996  3.501292 C.ar	1 RES1 0.0
57 C38	-2.535457  1.565936  2.677195 C.ar	1 RES1 0.0
58 H17	0.027071  2.959581  -0.722032 H	1 RES1 0.0
59 H18	0.109017  2.977771  2.306343 H	1 RES1 0.0
60 H19	0.138765  4.330659  4.423726 H	1 RES1 0.0
61 H20	-0.715067  6.5685  4.412119 H	1 RES1 0.0
62 H21	-2.578322  7.015192  2.866413 H	1 RES1 0.0
63 H22	-2.982182  5.524616  0.986943 H	1 RES1 0.0
64 H23	-2.053349  5.580744  -0.302331 H	1 RES1 0.0
65 H24	-4.028655  6.5369  -1.526434 H	1 RES1 0.0
66 H25	-5.280777  5.148041  -3.023217 H	1 RES1 0.0
67 H26	-5.421994  2.762014  -2.433817 H	1 RES1 0.0
68 H27	-3.797749  1.789316  -0.906396 H	1 RES1 0.0
69 H28	-4.569986  1.892068  0.051765 H	1 RES1 0.0
70 H29	-6.116041  1.001611  1.821313 H	1 RES1 0.0
71 H30	-5.213846  -0.192935  3.691126 H	1 RES1 0.0
72 H31	-2.980274  0.505847  4.454883 H	1 RES1 0.0
73 H32	-1.522367  1.757578  2.963239 H	1 RES1 0.0
74 S3	-0.743377  -1.051212  1.820781 S.3	1 RES1 0.0
75 C39	-1.435458  -2.677683  2.210288 C.3	1 RES1 0.0
76 C40	-0.54467  -3.377926  3.223479 C.ar	1 RES1 0.0
77 C41	0.826282  -3.309613  3.038036 C.ar	1 RES1 0.0
78 C42	1.545268  -4.337407  3.692827 C.ar	1 RES1 0.0
79 C43	1.064428  -5.08036  4.673046 C.ar	1 RES1 0.0
80 C44	-0.291209  -5.052025  4.848818 C.ar	1 RES1 0.0
81 C45	-1.075924  -4.166231  4.150616 C.ar	1 RES1 0.0
82 C46	-2.829427  -2.508983  2.792345 C.ar	1 RES1 0.0
83 C47	-3.027458  -2.619876  4.158746 C.ar	1 RES1 0.0
84 C48	-4.386036  -2.748754  4.53252 C.ar	1 RES1 0.0
85 C49	-5.408879  -2.43875  3.756824 C.ar	1 RES1 0.0
86 C50	-5.136073  -2.275527  2.427017 C.ar	1 RES1 0.0
87 C51	-3.841402  -2.268455  1.966939 C.ar	1 RES1 0.0
88 C52	-1.513474  -3.512014  0.942138 C.ar	1 RES1 0.0
89 C53	-2.751039  -3.783045  0.382193 C.ar	1 RES1 0.0
90 C54	-2.723568  -4.794184  -0.607198 C.ar	1 RES1 0.0
91 C55	-1.632502  -5.206696  -1.226412 C.ar	1 RES1 0.0
92 C56	-0.440197  -4.848534  -0.661099 C.ar	1 RES1 0.0
93 C57	-0.393926  -3.967265  0.392048 C.ar	1 RES1 0.0
94 H33	-0.673574  -0.304704  2.955442 H	1 RES1 0.0
95 H34	1.298761  -2.548646  2.452722 H	1 RES1 0.0
96 H35	2.548325  -4.525779  3.371435 H	1 RES1 0.0
97 H36	1.701462  -5.672641  5.296176 H	1 RES1 0.0
98 H37	-0.747573  -5.729404  5.540041 H	1 RES1 0.0
99 H38	-2.124612  -4.111142  4.355845 H	1 RES1 0.0
100 H39	-2.225787  -2.609062  4.867341 H	1 RES1 0.0
101 H40	-4.599523  -3.123447  5.511769 H	1 RES1 0.0
102 H41	-6.397911  -2.32161  4.147967 H	1 RES1 0.0
103 H42	-5.942401  -2.151516  1.734662 H	1 RES1 0.0
104 H43	-3.64687  -2.067305  0.934178 H	1 RES1 0.0
105 H44	-3.646578  -3.273962  0.671577 H	1 RES1 0.0
106 H45	-3.651329  -5.256766  -0.872109 H	1 RES1 0.0
107 H46	-1.679054  -5.789847  -2.12233 H	1 RES1 0.0
108 H47	0.469936  -5.260457  -1.044345 H	1 RES1 0.0
109 H48	0.552826  -3.644901  0.772365 H	1 RES1 0.0
110 S4	-0.743377  -1.051212  -1.820781 S.3	1 RES1 0.0
111 C58	-1.553618  -0.58447  -3.370543 C.3	1 RES1 0.0
112 C59	-0.679106  -0.996378  -4.543557 C.ar	1 RES1 0.0
113 C60	0.682208  -0.757334  -4.45275 C.ar	1 RES1 0.0
114 C61	1.340418  -0.708482  -5.704319 C.ar	1 RES1 0.0
115 C62	0.844718  -1.188192  -6.830452 C.ar	1 RES1 0.0
116 C63	-0.49349  -1.468595  -6.835093 C.ar	1 RES1 0.0
117 C64	-1.231417  -1.411661  -5.677458 C.ar	1 RES1 0.0
118 C65	-2.898478  -1.285744  -3.470379 C.ar	1 RES1 0.0
119 C66	-3.039847  -2.40039  -4.280405 C.ar	1 RES1 0.0
120 C67	-4.385072  -2.765823  -4.523059 C.ar	1 RES1 0.0
121 C68	-5.413276  -2.360855  -3.8 C.ar	1 RES1 0.0
122 C69	-5.191238  -1.298261  -2.96871 C.ar	1 RES1 0.0
123 C70	-3.924225  -0.801228  -2.780215 C.ar	1 RES1 0.0
124 C71	-1.763695  0.920671  -3.39915 C.ar	1 RES1 0.0
125 C72	-3.045332  1.43037  -3.271959 C.ar	1 RES1 0.0
126 C73	-3.152355  2.801816  -3.603221 C.ar	1 RES1 0.0
127 C74	-2.131705  3.636725  -3.675445 C.ar	1 RES1 0.0
128 C75	-0.887346  3.072735  -3.729615 C.ar	1 RES1 0.0
129 C76	-0.715083  1.722047  -3.545601 C.ar	1 RES1 0.0
130 H49	-0.555414  -2.397917  -1.795186 H	1 RES1 0.0
131 H50	1.189998  -0.621902  -3.520705 H	1 RES1 0.0
132 H51	2.30702  -0.251052  -5.740892 H	1 RES1 0.0
133 H52	1.457384  -1.348793  -7.69286 H	1 RES1 0.0
134 H53	-0.972985  -1.73622  -7.75344 H	1 RES1 0.0
135 H54	-2.260458  -1.704617  -5.689768 H	1 RES1 0.0
136 H55	-2.207306  -2.936468  -4.685862 H	1 RES1 0.0
137 H56	-4.583039  -3.415464  -5.349905 H	1 RES1 0.0
138 H57	-6.368727  -2.838602  -3.861401 H	1 RES1 0.0
139 H58	-6.016025  -0.847272  -2.457597 H	1 RES1 0.0
140 H59	-3.762629  -0.016628  -2.070856 H	1 RES1 0.0
141 H60	-3.878837  0.840515  -2.952208 H	1 RES1 0.0
142 H61	-4.128108  3.189412  -3.809558 H	1 RES1 0.0
143 H62	-2.271055  4.697502  -3.690747 H	1 RES1 0.0
144 H63	-0.035429  3.692124  -3.918018 H	1 RES1 0.0
145 H64	0.273  1.312241  -3.52008 H	1 RES1 0.0
@<TRIPOS>BOND
1 1 2 1
1 1 38 1
1 1 74 1
1 1 110 1
1 2 3 1
1 2 22 1
1 3 4 1
1 3 10 1
1 3 16 1
1 4 5 2
1 4 9 1
1 5 6 1
1 5 23 1
1 6 7 2
1 6 24 1
1 7 8 1
1 7 25 1
1 8 9 2
1 8 26 1
1 9 27 1
1 10 11 2
1 10 15 1
1 11 12 1
1 11 28 1
1 12 13 2
1 12 29 1
1 13 14 1
1 13 30 1
1 14 15 2
1 14 31 1
1 15 32 1
1 16 17 2
1 16 21 1
1 17 18 1
1 17 33 1
1 18 19 2
1 18 34 1
1 19 20 1
1 19 35 1
1 20 21 2
1 20 36 1
1 21 37 1
1 38 39 1
1 38 58 1
1 39 40 1
1 39 46 1
1 39 52 1
1 40 41 2
1 40 45 1
1 41 42 1
1 41 59 1
1 42 43 2
1 42 60 1
1 43 44 1
1 43 61 1
1 44 45 2
1 44 62 1
1 45 63 1
1 46 47 2
1 46 51 1
1 47 48 1
1 47 64 1
1 48 49 2
1 48 65 1
1 49 50 1
1 49 66 1
1 50 51 2
1 50 67 1
1 51 68 1
1 52 53 2
1 52 57 1
1 53 54 1
1 53 69 1
1 54 55 2
1 54 70 1
1 55 56 1
1 55 71 1
1 56 57 2
1 56 72 1
1 57 73 1
1 74 75 1
1 74 94 1
1 75 76 1
1 75 82 1
1 75 88 1
1 76 77 2
1 76 81 1
1 77 78 1
1 77 95 1
1 78 79 2
1 78 96 1
1 79 80 1
1 79 97 1
1 80 81 2
1 80 98 1
1 81 99 1
1 82 83 2
1 82 87 1
1 83 84 1
1 83 100 1
1 84 85 2
1 84 101 1
1 85 86 1
1 85 102 1
1 86 87 2
1 86 103 1
1 87 104 1
1 88 89 2
1 88 93 1
1 89 90 1
1 89 105 1
1 90 91 2
1 90 106 1
1 91 92 1
1 91 107 1
1 92 93 2
1 92 108 1
1 93 109 1
1 110 111 1
1 110 130 1
1 111 112 1
1 111 118 1
1 111 124 1
1 112 113 2
1 112 117 1
1 113 114 1
1 113 131 1
1 114 115 2
1 114 132 1
1 115 116 1
1 115 133 1
1 116 117 2
1 116 134 1
1 117 135 1
1 118 119 2
1 118 123 1
1 119 120 1
1 119 136 1
1 120 121 2
1 120 137 1
1 121 122 1
1 121 138 1
1 122 123 2
1 122 139 1
1 123 140 1
1 124 125 2
1 124 129 1
1 125 126 1
1 125 141 1
1 126 127 2
1 126 142 1
1 127 128 1
1 127 143 1
1 128 129 2
1 128 144 1
1 129 145 1
@<TRIPOS>SUBSTRUCTURE
1 RES1 145

