@<TRIPOS>MOLECULE
/home/jovyan/shared-scratch-kabdelma-pvc/kabdelma/HER-metal-complex-ligands/Runs//ni_oct_2_benzimidazole_6_s_1/ni_oct_2_benzimidazole_6_s_1_conf_1
85	96	1
SMALL
PartialCharges
****
Generated from molSimplify

@<TRIPOS>ATOM
1 Ni1	0.0  0.0  0.0 Ni	1 RES1 0.0
2 N1	0.0  2.213818  0.0 N.ar	1 RES1 0.0
3 C1	-0.364131  2.997215  -1.034518 C.ar	1 RES1 0.0
4 N2	-0.247278  4.285607  -0.795449 N.ar	1 RES1 0.0
5 C2	0.21424  4.34725  0.52024 C.ar	1 RES1 0.0
6 C3	0.544015  5.446193  1.304237 C.ar	1 RES1 0.0
7 C4	1.012628  5.213161  2.575418 C.ar	1 RES1 0.0
8 C5	1.134096  3.929878  3.078261 C.ar	1 RES1 0.0
9 C6	0.814002  2.824686  2.31588 C.ar	1 RES1 0.0
10 C7	0.364131  3.060183  1.034518 C.ar	1 RES1 0.0
11 H1	-0.716478  2.606501  -1.966234 H	1 RES1 0.0
12 H2	0.436523  6.442862  0.930075 H	1 RES1 0.0
13 H3	1.289951  6.043682  3.190419 H	1 RES1 0.0
14 H4	1.483788  3.791215  4.079954 H	1 RES1 0.0
15 H5	0.910607  1.831337  2.701659 H	1 RES1 0.0
16 N3	2.213818  0.0  0.0 N.ar	1 RES1 0.0
17 C8	2.997215  1.066913  0.254 C.ar	1 RES1 0.0
18 N4	4.285607  0.816939  0.162776 N.ar	1 RES1 0.0
19 C9	4.34725  -0.539785  -0.158686 C.ar	1 RES1 0.0
20 C10	5.446193  -1.353957  -0.404705 C.ar	1 RES1 0.0
21 C11	5.213161  -2.667158  -0.737877 C.ar	1 RES1 0.0
22 C12	3.929878  -3.179944  -0.806117 C.ar	1 RES1 0.0
23 C13	2.824686  -2.38828  -0.567468 C.ar	1 RES1 0.0
24 C14	3.060183  -1.066913  -0.254 C.ar	1 RES1 0.0
25 H6	2.606501  2.030355  0.507026 H	1 RES1 0.0
26 H7	6.442862  -0.970609  -0.336913 H	1 RES1 0.0
27 H8	6.043682  -3.307778  -0.949395 H	1 RES1 0.0
28 H9	3.791215  -4.212701  -1.049189 H	1 RES1 0.0
29 H10	1.831337  -2.782043  -0.623219 H	1 RES1 0.0
30 N5	0.0  -2.213818  0.0 N.ar	1 RES1 0.0
31 C15	0.558428  -2.997215  0.943916 C.ar	1 RES1 0.0
32 N6	0.450402  -4.285607  0.700731 N.ar	1 RES1 0.0
33 C16	-0.260817  -4.34725  -0.498521 C.ar	1 RES1 0.0
34 C17	-0.649417  -5.446193  -1.255087 C.ar	1 RES1 0.0
35 C18	-1.32198  -5.213161  -2.431165 C.ar	1 RES1 0.0
36 C19	-1.629102  -3.929878  -2.847436 C.ar	1 RES1 0.0
37 C20	-1.250836  -2.824686  -2.112181 C.ar	1 RES1 0.0
38 C21	-0.558428  -3.060183  -0.943916 C.ar	1 RES1 0.0
39 H11	1.045679  -2.606501  1.812725 H	1 RES1 0.0
40 H12	-0.431887  -6.442862  -0.932237 H	1 RES1 0.0
41 H13	-1.614838  -6.043682  -3.038922 H	1 RES1 0.0
42 H14	-2.171665  -3.791215  -3.759192 H	1 RES1 0.0
43 H15	-1.484263  -1.831337  -2.434158 H	1 RES1 0.0
44 N7	-2.213818  0.0  0.0 N.ar	1 RES1 0.0
45 C22	-2.997215  0.049921  -1.095594 C.ar	1 RES1 0.0
46 N8	-4.285607  0.068709  -0.83016 N.ar	1 RES1 0.0
47 C23	-4.34725  0.003754  0.562614 C.ar	1 RES1 0.0
48 C24	-5.446193  0.015826  1.413059 C.ar	1 RES1 0.0
49 C25	-5.213161  -0.025876  2.767223 C.ar	1 RES1 0.0
50 C26	-3.929878  -0.101622  3.278954 C.ar	1 RES1 0.0
51 C27	-2.824686  -0.112814  2.452177 C.ar	1 RES1 0.0
52 C28	-3.060183  -0.049921  1.095594 C.ar	1 RES1 0.0
53 H16	-2.606501  0.072257  -2.091457 H	1 RES1 0.0
54 H17	-6.442862  0.056325  1.025875 H	1 RES1 0.0
55 H18	-6.043682  0.00087  3.44133 H	1 RES1 0.0
56 H19	-3.791215  -0.152633  4.338704 H	1 RES1 0.0
57 H20	-1.831337  -0.167759  2.846054 H	1 RES1 0.0
58 N9	0.0  0.0  2.280161 N.ar	1 RES1 0.0
59 C29	0.753427  -0.796974  3.063558 C.ar	1 RES1 0.0
60 N10	0.549438  -0.626102  4.35195 N.ar	1 RES1 0.0
61 C30	-0.407319  0.388124  4.413593 C.ar	1 RES1 0.0
62 C31	-1.027463  0.970209  5.512536 C.ar	1 RES1 0.0
63 C32	-1.972599  1.940889  5.279504 C.ar	1 RES1 0.0
64 C33	-2.28809  2.350853  3.996221 C.ar	1 RES1 0.0
65 C34	-1.685582  1.784577  2.891029 C.ar	1 RES1 0.0
66 C35	-0.753427  0.796974  3.126526 C.ar	1 RES1 0.0
67 H21	1.454274  -1.504826  2.672844 H	1 RES1 0.0
68 H22	-0.777079  0.672115  6.509205 H	1 RES1 0.0
69 H23	-2.47609  2.389923  6.110025 H	1 RES1 0.0
70 H24	-3.014975  3.123712  3.857558 H	1 RES1 0.0
71 H25	-1.930745  2.09771  1.89768 H	1 RES1 0.0
72 N11	0.0  0.0  -2.200137 N.ar	1 RES1 0.0
73 C36	0.847589  -0.695997  -2.983534 C.ar	1 RES1 0.0
74 N12	0.662904  -0.504425  -4.271927 N.ar	1 RES1 0.0
75 C37	-0.415592  0.379252  -4.333569 C.ar	1 RES1 0.0
76 C38	-1.039518  0.957282  -5.432512 C.ar	1 RES1 0.0
77 C39	-2.073762  1.832404  -5.19948 C.ar	1 RES1 0.0
78 C40	-2.504736  2.118529  -3.916197 C.ar	1 RES1 0.0
79 C41	-1.89781  1.55699  -2.811005 C.ar	1 RES1 0.0
80 C42	-0.847589  0.695997  -3.046502 C.ar	1 RES1 0.0
81 H26	1.602605  -1.345761  -2.59282 H	1 RES1 0.0
82 H27	-0.724685  0.728302  -6.429181 H	1 RES1 0.0
83 H28	-2.556824  2.303345  -6.030001 H	1 RES1 0.0
84 H29	-3.326417  2.789731  -3.777534 H	1 RES1 0.0
85 H30	-2.227282  1.779713  -1.817656 H	1 RES1 0.0
@<TRIPOS>BOND
1 1 2 1
1 1 16 1
1 1 30 1
1 1 44 1
1 1 58 1
1 1 72 1
1 2 3 1
1 2 10 1
1 3 4 2
1 3 11 1
1 4 5 1
1 5 6 2
1 5 10 1
1 6 7 1
1 6 12 1
1 7 8 2
1 7 13 1
1 8 9 1
1 8 14 1
1 9 10 2
1 9 15 1
1 16 17 1
1 16 24 1
1 17 18 2
1 17 25 1
1 18 19 1
1 19 20 2
1 19 24 1
1 20 21 1
1 20 26 1
1 21 22 2
1 21 27 1
1 22 23 1
1 22 28 1
1 23 24 2
1 23 29 1
1 30 31 1
1 30 38 1
1 31 32 2
1 31 39 1
1 32 33 1
1 33 34 2
1 33 38 1
1 34 35 1
1 34 40 1
1 35 36 2
1 35 41 1
1 36 37 1
1 36 42 1
1 37 38 2
1 37 43 1
1 44 45 1
1 44 52 1
1 45 46 2
1 45 53 1
1 46 47 1
1 47 48 2
1 47 52 1
1 48 49 1
1 48 54 1
1 49 50 2
1 49 55 1
1 50 51 1
1 50 56 1
1 51 52 2
1 51 57 1
1 58 59 1
1 58 66 1
1 59 60 2
1 59 67 1
1 60 61 1
1 61 62 2
1 61 66 1
1 62 63 1
1 62 68 1
1 63 64 2
1 63 69 1
1 64 65 1
1 64 70 1
1 65 66 2
1 65 71 1
1 72 73 1
1 72 80 1
1 73 74 2
1 73 81 1
1 74 75 1
1 75 76 2
1 75 80 1
1 76 77 1
1 76 82 1
1 77 78 2
1 77 83 1
1 78 79 1
1 78 84 1
1 79 80 2
1 79 85 1
@<TRIPOS>SUBSTRUCTURE
1 RES1 85

