@<TRIPOS>MOLECULE
/home/jovyan/shared-scratch-kabdelma-pvc/kabdelma/HER-metal-complex-ligands/Runs//ni_oct_2_3-Bromopyridine-2(1H)-thione_3_s_1/ni_oct_2_3-Bromopyridine-2(1H)-thione_3_s_1_conf_1
34	39	1
SMALL
PartialCharges
****
Generated from molSimplify

@<TRIPOS>ATOM
1 Ni1	0.0  0.0  0.0 Ni	1 RES1 0.0
2 C1	0.299711  4.607175  -0.061352 C.2	1 RES1 0.0
3 C2	-0.43088  3.482407  -0.019349 C.3	1 RES1 0.0
4 N1	0.0  2.19726  0.0 N.pl3	1 RES1 0.0
5 C3	1.322059  1.998207  -0.02542 C.2	1 RES1 0.0
6 S1	1.807366  0.389895  0.0 S.3	1 RES1 0.0
7 C4	2.256881  3.204656  -0.073895 C.2	1 RES1 0.0
8 C5	1.725317  4.439932  -0.08983 C.2	1 RES1 0.0
9 Br1	4.119468  2.98975  -0.111181 Br	1 RES1 0.0
10 H1	-0.142979  5.59336  -0.073663 H	1 RES1 0.0
11 H2	-1.508834  3.648605  0.001289 H	1 RES1 0.0
12 H3	2.340594  5.328554  -0.123876 H	1 RES1 0.0
13 C6	-0.061352  -4.607175  0.299711 C.2	1 RES1 0.0
14 C7	-0.019349  -3.482407  -0.43088 C.3	1 RES1 0.0
15 N2	0.0  -2.19726  0.0 N.pl3	1 RES1 0.0
16 C8	-0.02542  -1.998207  1.322059 C.2	1 RES1 0.0
17 S2	-0.0  -0.389895  1.807366 S.3	1 RES1 0.0
18 C9	-0.073895  -3.204656  2.256881 C.2	1 RES1 0.0
19 C10	-0.08983  -4.439932  1.725317 C.2	1 RES1 0.0
20 Br2	-0.111181  -2.98975  4.119468 Br	1 RES1 0.0
21 H4	-0.073663  -5.59336  -0.142979 H	1 RES1 0.0
22 H5	0.001289  -3.648605  -1.508834 H	1 RES1 0.0
23 H6	-0.123876  -5.328554  2.340594 H	1 RES1 0.0
24 C11	-4.607175  -0.061352  -0.299711 C.2	1 RES1 0.0
25 C12	-3.482407  -0.019349  0.43088 C.3	1 RES1 0.0
26 N3	-2.19726  0.0  0.0 N.pl3	1 RES1 0.0
27 C13	-1.998207  -0.02542  -1.322059 C.2	1 RES1 0.0
28 S3	-0.389895  0.0  -1.807366 S.3	1 RES1 0.0
29 C14	-3.204656  -0.073895  -2.256881 C.2	1 RES1 0.0
30 C15	-4.439932  -0.08983  -1.725317 C.2	1 RES1 0.0
31 Br3	-2.98975  -0.111181  -4.119468 Br	1 RES1 0.0
32 H7	-5.59336  -0.073663  0.142979 H	1 RES1 0.0
33 H8	-3.648605  0.001289  1.508834 H	1 RES1 0.0
34 H9	-5.328554  -0.123876  -2.340594 H	1 RES1 0.0
@<TRIPOS>BOND
1 1 4 1
1 1 6 1
1 1 15 1
1 1 17 1
1 1 26 1
1 1 28 1
1 2 3 1
1 2 8 2
1 2 10 1
1 3 4 1
1 3 11 1
1 4 5 1
1 5 6 1
1 5 7 2
1 7 8 1
1 7 9 1
1 8 12 1
1 13 14 1
1 13 19 2
1 13 21 1
1 14 15 1
1 14 22 1
1 15 16 1
1 16 17 1
1 16 18 2
1 18 19 1
1 18 20 1
1 19 23 1
1 24 25 1
1 24 30 2
1 24 32 1
1 25 26 1
1 25 33 1
1 26 27 1
1 27 28 1
1 27 29 2
1 29 30 1
1 29 31 1
1 30 34 1
@<TRIPOS>SUBSTRUCTURE
1 RES1 34

