@<TRIPOS>MOLECULE
/home/jovyan/shared-scratch-kabdelma-pvc/kabdelma/HER-metal-complex-ligands/Runs//ni_oct_2_6-Mercaptonicotinonitrile_3_s_1/ni_oct_2_6-Mercaptonicotinonitrile_3_s_1_conf_1
37	42	1
SMALL
PartialCharges
****
Generated from molSimplify

@<TRIPOS>ATOM
1 Ni1	0.0  0.0  0.0 Ni	1 RES1 0.0
2 C1	3.985003  2.291212  -0.043179 C.2	1 RES1 0.0
3 C2	2.739864  2.791394  -0.029102 C.2	1 RES1 0.0
4 C3	1.575737  1.856781  -0.009865 C.3	1 RES1 0.0
5 S1	0.0  2.299458  0.0 S.3	1 RES1 0.0
6 N1	1.743573  0.555885  0.0 N.pl3	1 RES1 0.0
7 C4	3.034738  0.119523  -0.016761 C.2	1 RES1 0.0
8 C5	4.166015  0.85588  -0.038728 C.2	1 RES1 0.0
9 C6	5.473443  0.290022  -0.056725 C.1	1 RES1 0.0
10 N2	6.553996  -0.1406  -0.07216 N.1	1 RES1 0.0
11 H1	4.850505  2.940356  -0.057581 H	1 RES1 0.0
12 H2	2.544035  3.854988  -0.031912 H	1 RES1 0.0
13 H3	3.184985  -0.96197  -0.012507 H	1 RES1 0.0
14 C7	-0.043179  -2.291212  3.985003 C.2	1 RES1 0.0
15 C8	-0.029102  -2.791394  2.739864 C.2	1 RES1 0.0
16 C9	-0.009865  -1.856781  1.575737 C.3	1 RES1 0.0
17 S2	0.0  -2.299458  0.0 S.3	1 RES1 0.0
18 N3	-0.0  -0.555885  1.743573 N.pl3	1 RES1 0.0
19 C10	-0.016761  -0.119523  3.034738 C.2	1 RES1 0.0
20 C11	-0.038728  -0.85588  4.166015 C.2	1 RES1 0.0
21 C12	-0.056725  -0.290022  5.473443 C.1	1 RES1 0.0
22 N4	-0.07216  0.1406  6.553996 N.1	1 RES1 0.0
23 H4	-0.057581  -2.940356  4.850505 H	1 RES1 0.0
24 H5	-0.031912  -3.854988  2.544035 H	1 RES1 0.0
25 H6	-0.012507  0.96197  3.184985 H	1 RES1 0.0
26 C13	-2.291212  -0.043179  -3.985003 C.2	1 RES1 0.0
27 C14	-2.791394  -0.029102  -2.739864 C.2	1 RES1 0.0
28 C15	-1.856781  -0.009865  -1.575737 C.3	1 RES1 0.0
29 S3	-2.299458  0.0  0.0 S.3	1 RES1 0.0
30 N5	-0.555885  0.0  -1.743573 N.pl3	1 RES1 0.0
31 C16	-0.119523  -0.016761  -3.034738 C.2	1 RES1 0.0
32 C17	-0.85588  -0.038728  -4.166015 C.2	1 RES1 0.0
33 C18	-0.290022  -0.056725  -5.473443 C.1	1 RES1 0.0
34 N6	0.1406  -0.07216  -6.553996 N.1	1 RES1 0.0
35 H7	-2.940356  -0.057581  -4.850505 H	1 RES1 0.0
36 H8	-3.854988  -0.031912  -2.544035 H	1 RES1 0.0
37 H9	0.96197  -0.012507  -3.184985 H	1 RES1 0.0
@<TRIPOS>BOND
1 1 5 1
1 1 6 1
1 1 17 1
1 1 18 1
1 1 29 1
1 1 30 1
1 2 3 2
1 2 8 1
1 2 11 1
1 3 4 1
1 3 12 1
1 4 5 1
1 4 6 1
1 6 7 1
1 7 8 2
1 7 13 1
1 8 9 1
1 9 10 3
1 14 15 2
1 14 20 1
1 14 23 1
1 15 16 1
1 15 24 1
1 16 17 1
1 16 18 1
1 18 19 1
1 19 20 2
1 19 25 1
1 20 21 1
1 21 22 3
1 26 27 2
1 26 32 1
1 26 35 1
1 27 28 1
1 27 36 1
1 28 29 1
1 28 30 1
1 30 31 1
1 31 32 2
1 31 37 1
1 32 33 1
1 33 34 3
@<TRIPOS>SUBSTRUCTURE
1 RES1 37

