@<TRIPOS>MOLECULE
/Users/abdulahmed/Documents/GitHub/HER-metal-complex-ligands/Runs//diisobutylamine_hydride/diisobutylamine_hydride
83	81	2
SMALL
PartialCharges
****
Generated from molSimplify

@<TRIPOS>ATOM
1 Ni1	0.0  0.0  0.0 Ni	1 RES1 0.0
2 C1	3.525508  0.079838  3.099355 C.3	1 RES1 0.0
3 C2	3.948284  0.052206  1.639596 C.3	1 RES1 0.0
4 C3	2.986373  -0.834141  0.86531 C.3	1 RES1 0.0
5 C4	3.77534  -1.812857  0.010882 C.3	1 RES1 0.0
6 N1	2.14  0.0  0.0 N.3	1 RES1 0.0
7 C5	2.986373  0.834141  -0.86531 C.3	1 RES1 0.0
8 C6	3.238306  2.172242  -0.189726 C.3	1 RES1 0.0
9 C7	2.28385  1.061638  -2.193883 C.3	1 RES1 0.0
10 C8	3.159006  1.92415  -3.08863 C.3	1 RES1 0.0
11 H1	2.516775  0.429245  3.171974 H	1 RES1 0.0
12 H2	4.170527  0.736332  3.645127 H	1 RES1 0.0
13 H3	3.591609  -0.906612  3.508559 H	1 RES1 0.0
14 H4	3.882184  1.038656  1.230393 H	1 RES1 0.0
15 H5	4.957016  -0.297201  1.566977 H	1 RES1 0.0
16 H6	2.369915  -1.376282  1.551576 H	1 RES1 0.0
17 H7	4.153176  -1.284141  -0.839177 H	1 RES1 0.0
18 H8	4.593166  -2.185849  0.591345 H	1 RES1 0.0
19 H9	3.169281  -2.630902  -0.318351 H	1 RES1 0.0
20 H10	3.919635  0.339205  -1.035493 H	1 RES1 0.0
21 H11	4.286133  2.287455  -0.006196 H	1 RES1 0.0
22 H12	2.898641  2.962597  -0.826018 H	1 RES1 0.0
23 H13	2.707488  2.208629  0.73861 H	1 RES1 0.0
24 H14	2.106505  0.119685  -2.669459 H	1 RES1 0.0
25 H15	1.350589  1.556573  -2.023695 H	1 RES1 0.0
26 H16	4.092267  1.429215  -3.258819 H	1 RES1 0.0
27 H17	2.664465  2.084297  -4.023874 H	1 RES1 0.0
28 H18	3.33635  2.866103  -2.613053 H	1 RES1 0.0
29 C9	-1.656454  3.153709  3.058081 C.3	1 RES1 0.0
30 C10	-1.580051  3.629148  1.616374 C.3	1 RES1 0.0
31 C11	-0.330282  3.050771  0.972979 C.3	1 RES1 0.0
32 C12	0.43258  4.157334  0.263077 C.3	1 RES1 0.0
33 N2	-0.713377  2.017596  -0.0 N.3	1 RES1 0.0
34 C13	-1.660754  2.580346  -0.972979 C.3	1 RES1 0.0
35 C14	-3.08267  2.344805  -0.490198 C.3	1 RES1 0.0
36 C15	-1.464638  1.904544  -2.320283 C.3	1 RES1 0.0
37 C16	-2.444237  2.48643  -3.326362 C.3	1 RES1 0.0
38 H19	-1.655934  2.083963  3.081366 H	1 RES1 0.0
39 H20	-2.556005  3.519799  3.507175 H	1 RES1 0.0
40 H21	-0.811206  3.522681  3.60059 H	1 RES1 0.0
41 H22	-2.4253  3.260177  1.073866 H	1 RES1 0.0
42 H23	-1.580572  4.698895  1.59309 H	1 RES1 0.0
43 H24	0.291327  2.6167  1.728018 H	1 RES1 0.0
44 H25	-0.075457  4.378462  -0.652292 H	1 RES1 0.0
45 H26	0.432026  5.02458  0.889802 H	1 RES1 0.0
46 H27	1.44156  3.871259  0.050898 H	1 RES1 0.0
47 H28	-1.487446  3.631505  -1.072624 H	1 RES1 0.0
48 H29	-3.563614  3.286152  -0.324488 H	1 RES1 0.0
49 H30	-3.623847  1.793185  -1.230293 H	1 RES1 0.0
50 H31	-3.0615  1.789269  0.42404 H	1 RES1 0.0
51 H32	-0.463685  2.070354  -2.660137 H	1 RES1 0.0
52 H33	-1.637947  0.853385  -2.220633 H	1 RES1 0.0
53 H34	-2.270927  3.537588  -3.426012 H	1 RES1 0.0
54 H35	-2.306181  2.010699  -4.274792 H	1 RES1 0.0
55 H36	-3.445189  2.320619  -2.986507 H	1 RES1 0.0
56 C17	1.463653  -3.283218  3.019897 C.3	1 RES1 0.0
57 C18	0.07601  -2.726108  3.292796 C.3	1 RES1 0.0
58 C19	0.069621  -1.240886  2.969568 C.3	1 RES1 0.0
59 C20	-0.554038  -0.473771  4.124117 C.3	1 RES1 0.0
60 N3	-0.713375  -1.008786  1.747297 N.3	1 RES1 0.0
61 C21	-2.060654  -1.574639  1.907143 C.3	1 RES1 0.0
62 C22	-2.075823  -3.002181  1.385326 C.3	1 RES1 0.0
63 C23	-3.058008  -0.737806  1.122673 C.3	1 RES1 0.0
64 C24	-4.451115  -1.3229  1.287952 C.3	1 RES1 0.0
65 H37	1.728491  -3.097097  2.000035 H	1 RES1 0.0
66 H38	1.466991  -4.337505  3.202563 H	1 RES1 0.0
67 H39	2.172308  -2.807228  3.664988 H	1 RES1 0.0
68 H40	-0.632644  -3.2021  2.647705 H	1 RES1 0.0
69 H41	-0.188827  -2.912229  4.312659 H	1 RES1 0.0
70 H42	1.074082  -0.904319  2.81897 H	1 RES1 0.0
71 H43	-1.614882  -0.605511  4.077698 H	1 RES1 0.0
72 H44	-0.183686  -0.882303  5.041091 H	1 RES1 0.0
73 H45	-0.321913  0.569777  4.0791 H	1 RES1 0.0
74 H46	-2.328565  -1.570691  2.943053 H	1 RES1 0.0
75 H47	-2.311219  -3.672053  2.185801 H	1 RES1 0.0
76 H48	-2.813687  -3.092801  0.615752 H	1 RES1 0.0
77 H49	-1.11324  -3.246602  0.98709 H	1 RES1 0.0
78 H50	-3.047332  0.267108  1.490007 H	1 RES1 0.0
79 H51	-2.790093  -0.741756  0.086764 H	1 RES1 0.0
80 H52	-4.719031  -1.318948  2.32386 H	1 RES1 0.0
81 H53	-5.153199  -0.733813  0.735724 H	1 RES1 0.0
82 H54	-4.46179  -2.327814  0.920617 H	1 RES1 0.0
83 H55	-0.526698  -0.744805  -1.29006 H	2 RES2 0.0
@<TRIPOS>BOND
1 1 6 1
1 1 33 1
1 1 60 1
1 2 3 1
1 2 11 1
1 2 12 1
1 2 13 1
1 3 4 1
1 3 14 1
1 3 15 1
1 4 5 1
1 4 6 1
1 4 16 1
1 5 17 1
1 5 18 1
1 5 19 1
1 6 7 1
1 7 8 1
1 7 9 1
1 7 20 1
1 8 21 1
1 8 22 1
1 8 23 1
1 9 10 1
1 9 24 1
1 9 25 1
1 10 26 1
1 10 27 1
1 10 28 1
1 29 30 1
1 29 38 1
1 29 39 1
1 29 40 1
1 30 31 1
1 30 41 1
1 30 42 1
1 31 32 1
1 31 33 1
1 31 43 1
1 32 44 1
1 32 45 1
1 32 46 1
1 33 34 1
1 34 35 1
1 34 36 1
1 34 47 1
1 35 48 1
1 35 49 1
1 35 50 1
1 36 37 1
1 36 51 1
1 36 52 1
1 37 53 1
1 37 54 1
1 37 55 1
1 56 57 1
1 56 65 1
1 56 66 1
1 56 67 1
1 57 58 1
1 57 68 1
1 57 69 1
1 58 59 1
1 58 60 1
1 58 70 1
1 59 71 1
1 59 72 1
1 59 73 1
1 60 61 1
1 61 62 1
1 61 63 1
1 61 74 1
1 62 75 1
1 62 76 1
1 62 77 1
1 63 64 1
1 63 78 1
1 63 79 1
1 64 80 1
1 64 81 1
1 64 82 1
@<TRIPOS>SUBSTRUCTURE
1 RES1 82
2 RES2 1

