@<TRIPOS>MOLECULE
/Users/abdulahmed/Documents/GitHub/HER-metal-complex-ligands/Runs//3_methoxypropylamine_hydride/3_methoxypropylamine_hydride
82	85	2
SMALL
PartialCharges
****
Generated from molSimplify

@<TRIPOS>ATOM
1 Ni1	0.0  0.0  0.0 Ni	1 RES1 0.0
2 C1	-1.095013  4.652659  0.656382 C.3	1 RES1 0.0
3 O1	-0.756461  5.446966  -0.470942 O.3	1 RES1 0.0
4 C2	-0.055018  4.652657  -1.416168 C.3	1 RES1 0.0
5 C3	1.213913  4.109727  -0.779424 C.3	1 RES1 0.0
6 C4	0.851519  3.259482  0.427288 C.3	1 RES1 0.0
7 N1	0.0  2.14  0.0 N.3	1 RES1 0.0
8 H1	-1.623565  5.251186  1.36863 H	1 RES1 0.0
9 H2	-0.201752  4.270465  1.104616 H	1 RES1 0.0
10 H3	-1.714827  3.837798  0.345364 H	1 RES1 0.0
11 H4	-0.674833  3.837798  -1.727187 H	1 RES1 0.0
12 H5	0.200088  5.251184  -2.26563 H	1 RES1 0.0
13 H6	1.742465  3.5112  -1.491673 H	1 RES1 0.0
14 H7	1.833727  4.924587  -0.468405 H	1 RES1 0.0
15 H8	1.74478  2.877289  0.875522 H	1 RES1 0.0
16 H9	0.322967  3.858009  1.139536 H	1 RES1 0.0
17 H10	-0.851519  2.504334  -0.427288 H	1 RES1 0.0
18 C5	4.652659  0.578399  -1.138132 C.3	1 RES1 0.0
19 O2	5.446966  -0.522563  -0.721767 O.3	1 RES1 0.0
20 C6	4.652657  -1.416556  0.043903 C.3	1 RES1 0.0
21 C7	4.109727  -0.692848  1.265326 C.3	1 RES1 0.0
22 C8	3.259482  0.485646  0.819639 C.3	1 RES1 0.0
23 N2	2.14  0.0  0.0 N.3	1 RES1 0.0
24 H11	5.251186  1.252042  -1.715081 H	1 RES1 0.0
25 H12	4.270465  1.087852  -0.278315 H	1 RES1 0.0
26 H13	3.837798  0.224902  -1.734741 H	1 RES1 0.0
27 H14	3.837798  -1.770054  -0.552706 H	1 RES1 0.0
28 H15	5.251184  -2.246154  0.357643 H	1 RES1 0.0
29 H16	3.5112  -1.366492  1.842274 H	1 RES1 0.0
30 H17	4.924587  -0.33935  1.861934 H	1 RES1 0.0
31 H18	2.877289  0.995099  1.679457 H	1 RES1 0.0
32 H19	3.858009  1.159289  0.24269 H	1 RES1 0.0
33 H20	2.504334  -0.485646  -0.819639 H	1 RES1 0.0
34 C9	0.578399  -4.652659  -1.138132 C.3	1 RES1 0.0
35 O3	-0.522563  -5.446966  -0.721767 O.3	1 RES1 0.0
36 C10	-1.416556  -4.652657  0.043903 C.3	1 RES1 0.0
37 C11	-0.692848  -4.109727  1.265326 C.3	1 RES1 0.0
38 C12	0.485646  -3.259482  0.819639 C.3	1 RES1 0.0
39 N3	0.0  -2.14  0.0 N.3	1 RES1 0.0
40 H21	1.252042  -5.251186  -1.715081 H	1 RES1 0.0
41 H22	1.087852  -4.270465  -0.278315 H	1 RES1 0.0
42 H23	0.224902  -3.837798  -1.734741 H	1 RES1 0.0
43 H24	-1.770054  -3.837798  -0.552706 H	1 RES1 0.0
44 H25	-2.246154  -5.251184  0.357643 H	1 RES1 0.0
45 H26	-1.366492  -3.5112  1.842274 H	1 RES1 0.0
46 H27	-0.33935  -4.924587  1.861934 H	1 RES1 0.0
47 H28	0.995099  -2.877289  1.679457 H	1 RES1 0.0
48 H29	1.159289  -3.858009  0.24269 H	1 RES1 0.0
49 H30	-0.485646  -2.504334  -0.819639 H	1 RES1 0.0
50 C13	-4.652659  0.24492  -1.252958 C.3	1 RES1 0.0
51 O4	-5.446966  0.856149  -0.247038 O.3	1 RES1 0.0
52 C14	-4.652657  1.089232  0.906715 C.3	1 RES1 0.0
53 C15	-4.109727  -0.233041  1.42365 C.3	1 RES1 0.0
54 C16	-3.259482  -0.887315  0.346891 C.3	1 RES1 0.0
55 N4	-2.14  0.0  0.0 N.3	1 RES1 0.0
56 H31	-5.251186  0.069287  -2.122337 H	1 RES1 0.0
57 H32	-4.270465  -0.685891  -0.889064 H	1 RES1 0.0
58 H33	-3.837798  0.890788  -1.505458 H	1 RES1 0.0
59 H34	-3.837798  1.735101  0.654215 H	1 RES1 0.0
60 H35	-5.251184  1.549806  1.664697 H	1 RES1 0.0
61 H36	-3.5112  -0.057407  2.293028 H	1 RES1 0.0
62 H37	-4.924587  -0.87891  1.676149 H	1 RES1 0.0
63 H38	-2.877289  -1.818125  0.710786 H	1 RES1 0.0
64 H39	-3.858009  -1.062948  -0.522487 H	1 RES1 0.0
65 H40	-2.504334  0.887315  -0.346891 H	1 RES1 0.0
66 C17	1.138132  0.578399  4.652659 C.3	1 RES1 0.0
67 O5	0.721767  -0.522563  5.446966 O.3	1 RES1 0.0
68 C18	-0.043903  -1.416556  4.652657 C.3	1 RES1 0.0
69 C19	-1.265326  -0.692848  4.109727 C.3	1 RES1 0.0
70 C20	-0.819639  0.485646  3.259482 C.3	1 RES1 0.0
71 N5	0.0  0.0  2.14 N.3	1 RES1 0.0
72 H41	1.715081  1.252042  5.251186 H	1 RES1 0.0
73 H42	0.278315  1.087852  4.270465 H	1 RES1 0.0
74 H43	1.734741  0.224902  3.837798 H	1 RES1 0.0
75 H44	0.552706  -1.770054  3.837798 H	1 RES1 0.0
76 H45	-0.357643  -2.246154  5.251184 H	1 RES1 0.0
77 H46	-1.842274  -1.366492  3.5112 H	1 RES1 0.0
78 H47	-1.861934  -0.33935  4.924587 H	1 RES1 0.0
79 H48	-1.679457  0.995099  2.877289 H	1 RES1 0.0
80 H49	-0.24269  1.159289  3.858009 H	1 RES1 0.0
81 H50	0.819639  -0.485646  2.504334 H	1 RES1 0.0
82 H51	-0.0  0.0  -1.58 H	2 RES2 0.0
@<TRIPOS>BOND
1 1 7 1
1 1 23 1
1 1 39 1
1 1 55 1
1 1 71 1
1 2 3 1
1 2 8 1
1 2 9 1
1 2 10 1
1 3 4 1
1 4 5 1
1 4 11 1
1 4 12 1
1 5 6 1
1 5 13 1
1 5 14 1
1 6 7 1
1 6 15 1
1 6 16 1
1 7 17 1
1 9 16 1
1 18 19 1
1 18 24 1
1 18 25 1
1 18 26 1
1 19 20 1
1 20 21 1
1 20 27 1
1 20 28 1
1 21 22 1
1 21 29 1
1 21 30 1
1 22 23 1
1 22 31 1
1 22 32 1
1 23 33 1
1 25 32 1
1 34 35 1
1 34 40 1
1 34 41 1
1 34 42 1
1 35 36 1
1 36 37 1
1 36 43 1
1 36 44 1
1 37 38 1
1 37 45 1
1 37 46 1
1 38 39 1
1 38 47 1
1 38 48 1
1 39 49 1
1 41 48 1
1 50 51 1
1 50 56 1
1 50 57 1
1 50 58 1
1 51 52 1
1 52 53 1
1 52 59 1
1 52 60 1
1 53 54 1
1 53 61 1
1 53 62 1
1 54 55 1
1 54 63 1
1 54 64 1
1 55 65 1
1 57 64 1
1 66 67 1
1 66 72 1
1 66 73 1
1 66 74 1
1 67 68 1
1 68 69 1
1 68 75 1
1 68 76 1
1 69 70 1
1 69 77 1
1 69 78 1
1 70 71 1
1 70 79 1
1 70 80 1
1 71 81 1
1 73 80 1
@<TRIPOS>SUBSTRUCTURE
1 RES1 81
2 RES2 1

