@<TRIPOS>MOLECULE
/Users/abdulahmed/Documents/GitHub/HER-metal-complex-ligands/Runs//ni_oct_2_ethanolamine_3_s_1/ni_oct_2_ethanolamine_3_s_1_conf_1
34	36	1
SMALL
PartialCharges
****
Generated from molSimplify

@<TRIPOS>ATOM
1 Ni1	0.0  0.0  0.0 Ni	1 RES1 0.0
2 C1	1.200662  2.645699  0.614356 C.3	1 RES1 0.0
3 N1	0.0  2.14  -0.0 N.4	1 RES1 0.0
4 H1	-0.862035  2.382677  0.540413 H	1 RES1 0.0
5 H2	-0.067414  2.477545  -0.989524 H	1 RES1 0.0
6 C2	2.23976  1.75937  -0.009082 C.3	1 RES1 0.0
7 H3	1.165046  2.439144  1.711521 H	1 RES1 0.0
8 H4	1.363749  3.732552  0.452254 H	1 RES1 0.0
9 O1	1.665928  0.474072  0.0 O.3	1 RES1 0.0
10 H5	1.846324  0.098623  0.902603 H	1 RES1 0.0
11 H6	2.395701  2.054807  -1.071974 H	1 RES1 0.0
12 H7	3.222833  1.814172  0.510031 H	1 RES1 0.0
13 C3	0.614356  -2.645699  1.200662 C.3	1 RES1 0.0
14 N2	-0.0  -2.14  0.0 N.4	1 RES1 0.0
15 H8	0.540413  -2.382677  -0.862035 H	1 RES1 0.0
16 H9	-0.989524  -2.477545  -0.067414 H	1 RES1 0.0
17 C4	-0.009082  -1.75937  2.23976 C.3	1 RES1 0.0
18 H10	1.711521  -2.439144  1.165046 H	1 RES1 0.0
19 H11	0.452254  -3.732552  1.363749 H	1 RES1 0.0
20 O2	-0.0  -0.474072  1.665928 O.3	1 RES1 0.0
21 H12	0.902603  -0.098623  1.846324 H	1 RES1 0.0
22 H13	-1.071974  -2.054807  2.395701 H	1 RES1 0.0
23 H14	0.510031  -1.814172  3.222833 H	1 RES1 0.0
24 C5	-2.645699  0.614356  -1.200662 C.3	1 RES1 0.0
25 N3	-2.14  0.0  0.0 N.4	1 RES1 0.0
26 H15	-2.382677  0.540413  0.862035 H	1 RES1 0.0
27 H16	-2.477545  -0.989524  0.067414 H	1 RES1 0.0
28 C6	-1.75937  -0.009082  -2.23976 C.3	1 RES1 0.0
29 H17	-2.439144  1.711521  -1.165046 H	1 RES1 0.0
30 H18	-3.732552  0.452254  -1.363749 H	1 RES1 0.0
31 O3	-0.474072  0.0  -1.665928 O.3	1 RES1 0.0
32 H19	-0.098623  0.902603  -1.846324 H	1 RES1 0.0
33 H20	-2.054807  -1.071974  -2.395701 H	1 RES1 0.0
34 H21	-1.814172  0.510031  -3.222833 H	1 RES1 0.0
@<TRIPOS>BOND
1 1 3 1
1 1 9 1
1 1 14 1
1 1 20 1
1 1 25 1
1 1 31 1
1 2 3 1
1 2 6 1
1 2 7 1
1 2 8 1
1 3 4 1
1 3 5 1
1 6 9 1
1 6 11 1
1 6 12 1
1 9 10 1
1 13 14 1
1 13 17 1
1 13 18 1
1 13 19 1
1 14 15 1
1 14 16 1
1 17 20 1
1 17 22 1
1 17 23 1
1 20 21 1
1 24 25 1
1 24 28 1
1 24 29 1
1 24 30 1
1 25 26 1
1 25 27 1
1 28 31 1
1 28 33 1
1 28 34 1
1 31 32 1
@<TRIPOS>SUBSTRUCTURE
1 RES1 34

