@<TRIPOS>MOLECULE
/Users/abdulahmed/Documents/GitHub/HER-metal-complex-ligands/Runs//ni_oct_2_2aminobenzethiol_config2_H2/ni_oct_2_2aminobenzethiol_config2_H2
48	51	2
SMALL
PartialCharges
****
Generated from molSimplify

@<TRIPOS>ATOM
1 Ni1	0.0  0.0  0.0 Ni	1 RES1 0.0
2 N1	0.0  2.14  0.0 N.pl3	1 RES1 0.0
3 C1	1.326547  2.618415  0.024069 C.ar	1 RES1 0.0
4 C2	1.563226  3.98919  -0.12913 C.ar	1 RES1 0.0
5 C3	2.867143  4.484404  -0.208766 C.ar	1 RES1 0.0
6 C4	3.949491  3.608817  -0.175554 C.ar	1 RES1 0.0
7 C5	3.728171  2.234388  -0.093397 C.ar	1 RES1 0.0
8 C6	2.422462  1.735025  -0.024503 C.ar	1 RES1 0.0
9 S1	2.175163  -0.035163  0.0 S.3	1 RES1 0.0
10 H1	-0.076616  1.234026  0.458598 H	1 RES1 0.0
11 H2	-0.671035  2.806842  0.369065 H	1 RES1 0.0
12 H3	0.73052  4.685572  -0.18373 H	1 RES1 0.0
13 H4	3.035448  5.55385  -0.306969 H	1 RES1 0.0
14 H5	4.964267  3.993175  -0.237287 H	1 RES1 0.0
15 H6	4.578254  1.556473  -0.100536 H	1 RES1 0.0
16 H7	1.23334  -0.033996  -0.956098 H	1 RES1 0.0
17 N2	0.0  -2.14  0.0 N.pl3	1 RES1 0.0
18 C7	0.024069  -2.618415  1.326547 C.ar	1 RES1 0.0
19 C8	-0.12913  -3.98919  1.563226 C.ar	1 RES1 0.0
20 C9	-0.208766  -4.484404  2.867143 C.ar	1 RES1 0.0
21 C10	-0.175554  -3.608817  3.949491 C.ar	1 RES1 0.0
22 C11	-0.093397  -2.234388  3.728171 C.ar	1 RES1 0.0
23 C12	-0.024503  -1.735025  2.422462 C.ar	1 RES1 0.0
24 S2	-0.0  0.035163  2.175163 S.3	1 RES1 0.0
25 H8	0.458598  -1.234026  -0.076616 H	1 RES1 0.0
26 H9	0.369065  -2.806842  -0.671035 H	1 RES1 0.0
27 H10	-0.18373  -4.685572  0.73052 H	1 RES1 0.0
28 H11	-0.306969  -5.55385  3.035448 H	1 RES1 0.0
29 H12	-0.237287  -3.993175  4.964267 H	1 RES1 0.0
30 H13	-0.100536  -1.556473  4.578254 H	1 RES1 0.0
31 H14	-0.956098  0.033996  1.23334 H	1 RES1 0.0
32 N3	-5.08931  0.084036  0.572896 N.pl3	1 RES1 0.0
33 C13	-4.827329  0.03792  -0.872835 C.ar	1 RES1 0.0
34 C14	-5.832142  0.082884  -1.879073 C.ar	1 RES1 0.0
35 C15	-5.478585  -0.156818  -3.217017 C.ar	1 RES1 0.0
36 C16	-4.227194  -0.146627  -3.571233 C.ar	1 RES1 0.0
37 C17	-3.230459  0.113887  -2.621449 C.ar	1 RES1 0.0
38 C18	-3.545448  0.053962  -1.242089 C.ar	1 RES1 0.0
39 S3	-2.23  0.0  0.0 S.3	1 RES1 0.0
40 H15	-5.24522  1.081504  0.427469 H	1 RES1 0.0
41 H16	-4.178149  -0.325197  0.366224 H	1 RES1 0.0
42 H17	-5.844562  -0.5042  0.924996 H	1 RES1 0.0
43 H18	-6.847655  0.297303  -1.618965 H	1 RES1 0.0
44 H19	-6.238991  -0.34788  -3.945151 H	1 RES1 0.0
45 H20	-3.958456  -0.337418  -4.589211 H	1 RES1 0.0
46 H21	-2.237149  0.356678  -2.936547 H	1 RES1 0.0
47 H22	-2.781274  -0.053962  1.242089 H	1 RES1 0.0
48 H23	-0.0  0.0  -1.58 H	2 RES2 0.0
@<TRIPOS>BOND
1 1 2 1
1 1 9 1
1 1 17 1
1 1 24 1
1 1 39 1
1 2 3 1
1 2 10 1
1 2 11 1
1 3 4 2
1 3 8 1
1 4 5 1
1 4 12 1
1 5 6 2
1 5 13 1
1 6 7 1
1 6 14 1
1 7 8 2
1 7 15 1
1 8 9 1
1 9 16 1
1 17 18 1
1 17 25 1
1 17 26 1
1 18 19 2
1 18 23 1
1 19 20 1
1 19 27 1
1 20 21 2
1 20 28 1
1 21 22 1
1 21 29 1
1 22 23 2
1 22 30 1
1 23 24 1
1 24 31 1
1 32 33 1
1 32 40 1
1 32 41 1
1 32 42 1
1 33 34 2
1 33 38 1
1 34 35 1
1 34 43 1
1 35 36 2
1 35 44 1
1 36 37 1
1 36 45 1
1 37 38 2
1 37 46 1
1 38 39 1
1 39 47 1
@<TRIPOS>SUBSTRUCTURE
1 RES1 47
2 RES2 1

