@<TRIPOS>MOLECULE
/Users/abdulahmed/Documents/GitHub/HER-metal-complex-ligands/Runs//2-Mercapto-6-methylpyridine_hydride/2-Mercapto-6-methylpyridine_hydride
31	34	3
SMALL
PartialCharges
****
Generated from molSimplify

@<TRIPOS>ATOM
1 Ni1	0.0  0.0  0.0 Ni	1 RES1 0.0
2 C1	3.351673  -1.515189  0.008732 C.3	1 RES1 0.0
3 C2	3.126275  -0.035386  -0.019111 C.2	1 RES1 0.0
4 C3	4.210316  0.838361  -0.062573 C.2	1 RES1 0.0
5 C4	3.961221  2.206309  -0.087409 C.2	1 RES1 0.0
6 C5	2.644999  2.657301  -0.068201 C.2	1 RES1 0.0
7 C6	1.62908  1.715892  -0.024751 C.3	1 RES1 0.0
8 S1	0.0  2.23  0.0 S.3	1 RES1 0.0
9 N1	1.842475  0.387525  0.0 N.pl3	1 RES1 0.0
10 H1	2.4002  -2.055817  0.041868 H	1 RES1 0.0
11 H2	3.891925  -1.832528  -0.888618 H	1 RES1 0.0
12 H3	3.931531  -1.792947  0.894413 H	1 RES1 0.0
13 H4	5.226103  0.463618  -0.076804 H	1 RES1 0.0
14 H5	4.777006  2.918852  -0.121337 H	1 RES1 0.0
15 H6	2.421788  3.717947  -0.086791 H	1 RES1 0.0
16 C7	0.008732  1.515189  3.351673 C.3	1 RES1 0.0
17 C8	-0.019111  0.035386  3.126275 C.2	1 RES1 0.0
18 C9	-0.062573  -0.838361  4.210316 C.2	1 RES1 0.0
19 C10	-0.087409  -2.206309  3.961221 C.2	1 RES1 0.0
20 C11	-0.068201  -2.657301  2.644999 C.2	1 RES1 0.0
21 C12	-0.024751  -1.715892  1.62908 C.3	1 RES1 0.0
22 S2	0.0  -2.23  0.0 S.3	1 RES1 0.0
23 N2	-0.0  -0.387525  1.842475 N.pl3	1 RES1 0.0
24 H7	0.041868  2.055817  2.4002 H	1 RES1 0.0
25 H8	-0.888618  1.832528  3.891925 H	1 RES1 0.0
26 H9	0.894413  1.792947  3.931531 H	1 RES1 0.0
27 H10	-0.076804  -0.463618  5.226103 H	1 RES1 0.0
28 H11	-0.121337  -2.918852  4.777006 H	1 RES1 0.0
29 H12	-0.086791  -3.717947  2.421788 H	1 RES1 0.0
30 H13	-1.58  0.0  0.0 H	2 RES2 0.0
31 H14	0.0  0.0  -1.58 H	3 RES3 0.0
@<TRIPOS>BOND
1 1 7 1
1 1 8 1
1 1 9 1
1 1 21 1
1 1 22 1
1 1 23 1
1 2 3 1
1 2 10 1
1 2 11 1
1 2 12 1
1 3 4 2
1 3 9 1
1 4 5 1
1 4 13 1
1 5 6 2
1 5 14 1
1 6 7 1
1 6 15 1
1 7 8 1
1 7 9 1
1 16 17 1
1 16 24 1
1 16 25 1
1 16 26 1
1 17 18 2
1 17 23 1
1 18 19 1
1 18 27 1
1 19 20 2
1 19 28 1
1 20 21 1
1 20 29 1
1 21 22 1
1 21 23 1
@<TRIPOS>SUBSTRUCTURE
1 RES1 29
2 RES2 1
3 RES3 1

