@<TRIPOS>MOLECULE
/home/jovyan/shared-scratch-kabdelma-pvc/kabdelma/HER-metal-complex-ligands/Runs//ni_tpl_2_benzimidazole_3_s_1/badjob_ni_tpl_2_benzimidazole_3_s_1_conf_1
46	66	1
SMALL
PartialCharges
****
Generated from molSimplify

@<TRIPOS>ATOM
1 Ni1	0.0  0.0  0.0 Ni	1 RES1 0.0
2 N1	4.283299  -0.43928  0.285281 N.pl3	1 RES1 0.0
3 C1	3.54929  -1.56684  0.365096 C.3	1 RES1 0.0
4 N2	2.259245  -1.377522  0.18987 N.4	1 RES1 0.0
5 C2	2.14  -0.0  0.0 C.3	1 RES1 0.0
6 C3	1.016038  0.775771  -0.25684 C.3	1 RES1 0.0
7 C4	1.193587  2.126924  -0.43758 C.3	1 RES1 0.0
8 C5	2.444306  2.711426  -0.345506 C.3	1 RES1 0.0
9 C6	3.573686  1.959105  -0.093217 C.2	1 RES1 0.0
10 C7	3.395747  0.601751  0.06697 C.2	1 RES1 0.0
11 H1	5.29721  -0.366453  0.369427 H	1 RES1 0.0
12 H2	3.977205  -2.529194  0.553946 H	1 RES1 0.0
13 H3	0.042573  0.335091  -0.312209 H	1 RES1 0.0
14 H4	0.344628  2.741001  -0.654556 H	1 RES1 0.0
15 H5	2.538059  3.7697  -0.47265 H	1 RES1 0.0
16 H6	4.542256  2.408706  -0.025162 H	1 RES1 0.0
17 N3	-1.752832  3.933929  0.269777 N.pl3	1 RES1 0.0
18 C8	-0.407515  3.863089  0.310192 C.3	1 RES1 0.0
19 N4	0.068358  2.648218  0.141679 N.4	1 RES1 0.0
20 C9	-1.07  1.853294  0.0 C.3	1 RES1 0.0
21 C10	-1.18721  0.487784  -0.22961 C.3	1 RES1 0.0
22 C11	-2.450867  -0.036774  -0.363084 C.3	1 RES1 0.0
23 C12	-3.579329  0.755915  -0.250668 C.3	1 RES1 0.0
24 C13	-3.485262  2.11432  -0.024788 C.2	1 RES1 0.0
25 C14	-2.216664  2.641279  0.08793 C.2	1 RES1 0.0
26 H7	-2.320276  4.777079  0.356413 H	1 RES1 0.0
27 H8	0.217151  4.717853  0.465341 H	1 RES1 0.0
28 H9	-0.320743  -0.136022  -0.300325 H	1 RES1 0.0
29 H10	-2.564428  -1.082631  -0.558498 H	1 RES1 0.0
30 H11	-4.545982  0.306073  -0.340802 H	1 RES1 0.0
31 H12	-4.356619  2.72965  0.058916 H	1 RES1 0.0
32 N5	-2.538385  -3.48039  0.253944 N.pl3	1 RES1 0.0
33 C15	-3.150319  -2.27953  0.254909 C.3	1 RES1 0.0
34 N6	-2.331156  -1.262857  0.093316 N.4	1 RES1 0.0
35 C16	-1.07  -1.853294  0.0 C.3	1 RES1 0.0
36 C17	0.177698  -1.275814  -0.202099 C.3	1 RES1 0.0
37 C18	1.267124  -2.10981  -0.288147 C.3	1 RES1 0.0
38 C19	1.141162  -3.481293  -0.155525 C.3	1 RES1 0.0
39 C20	-0.08871  -4.07532  0.043671 C.2	1 RES1 0.0
40 C21	-1.182057  -3.23861  0.108783 C.2	1 RES1 0.0
41 H13	-2.987508  -4.391853  0.342964 H	1 RES1 0.0
42 H14	-4.207077  -2.163522  0.376169 H	1 RES1 0.0
43 H15	0.287065  -0.214896  -0.288074 H	1 RES1 0.0
44 H16	2.235222  -1.688449  -0.461759 H	1 RES1 0.0
45 H17	2.016226  -4.094768  -0.208538 H	1 RES1 0.0
46 H18	-0.18869  -5.136006  0.142923 H	1 RES1 0.0
@<TRIPOS>BOND
1 1 5 1
1 1 6 1
1 1 20 1
1 1 21 1
1 1 35 1
1 1 36 1
1 2 3 1
1 2 10 1
1 2 11 1
1 3 4 1
1 3 12 1
1 4 5 1
1 4 37 1
1 4 44 1
1 5 6 1
1 5 10 1
1 6 7 1
1 6 13 1
1 6 43 1
1 7 8 1
1 7 14 1
1 7 19 1
1 8 9 1
1 8 15 1
1 9 10 2
1 9 16 1
1 13 21 1
1 13 28 1
1 13 43 1
1 14 19 1
1 17 18 1
1 17 25 1
1 17 26 1
1 18 19 1
1 18 27 1
1 19 20 1
1 20 21 1
1 20 25 1
1 21 22 1
1 21 28 1
1 22 23 1
1 22 29 1
1 22 34 1
1 23 24 1
1 23 30 1
1 24 25 2
1 24 31 1
1 28 36 1
1 28 43 1
1 29 34 1
1 32 33 1
1 32 40 1
1 32 41 1
1 33 34 1
1 33 42 1
1 34 35 1
1 35 36 1
1 35 40 1
1 36 37 1
1 36 43 1
1 37 38 1
1 37 44 1
1 38 39 1
1 38 45 1
1 39 40 2
1 39 46 1
@<TRIPOS>SUBSTRUCTURE
1 RES1 46

