@<TRIPOS>MOLECULE
/home/jovyan/shared-scratch-kabdelma-pvc/kabdelma/HER-metal-complex-ligands/Runs//ni_tpl_2_benzimidazole_3_s_1/ni_tpl_2_benzimidazole_3_s_1_conf_1
43	48	1
SMALL
PartialCharges
****
Generated from molSimplify

@<TRIPOS>ATOM
1 Ni1	0.0  0.0  0.0 Ni	1 RES1 0.0
2 N1	2.14  0.0  0.0 N.ar	1 RES1 0.0
3 C1	2.923397  -0.745263  0.804613 C.ar	1 RES1 0.0
4 N2	4.211789  -0.543026  0.631671 N.ar	1 RES1 0.0
5 C2	4.273432  0.403341  -0.392256 C.ar	1 RES1 0.0
6 C3	5.372375  1.017519  -0.980633 C.ar	1 RES1 0.0
7 C4	5.139342  1.95271  -1.960898 C.ar	1 RES1 0.0
8 C5	3.85606  2.264004  -2.374058 C.ar	1 RES1 0.0
9 C6	2.750868  1.6673  -1.801669 C.ar	1 RES1 0.0
10 C7	2.986365  0.745263  -0.804613 C.ar	1 RES1 0.0
11 H1	2.532683  -1.438857  1.519574 H	1 RES1 0.0
12 H2	6.369044  0.770187  -0.680003 H	1 RES1 0.0
13 H3	5.969864  2.451596  -2.415042 H	1 RES1 0.0
14 H4	3.717397  2.982972  -3.154287 H	1 RES1 0.0
15 H5	1.757519  1.909259  -2.117285 H	1 RES1 0.0
16 N3	-1.07  1.853294  0.0 N.ar	1 RES1 0.0
17 C8	-0.528747  3.070376  -0.205639 C.ar	1 RES1 0.0
18 N4	-1.392769  4.05924  -0.125778 N.ar	1 RES1 0.0
19 C9	-2.609905  3.427705  0.134188 C.ar	1 RES1 0.0
20 C10	-3.873359  3.967199  0.343248 C.ar	1 RES1 0.0
21 C11	-4.905961  3.101943  0.616874 C.ar	1 RES1 0.0
22 C12	-4.710618  1.732918  0.661926 C.ar	1 RES1 0.0
23 C13	-3.463799  1.176603  0.459212 C.ar	1 RES1 0.0
24 C14	-2.426135  2.047628  0.205639 C.ar	1 RES1 0.0
25 H6	0.510006  3.218942  -0.414969 H	1 RES1 0.0
26 H7	-4.037395  5.023347  0.292809 H	1 RES1 0.0
27 H8	-5.88371  3.496443  0.799294 H	1 RES1 0.0
28 H9	-5.544262  1.091498  0.858187 H	1 RES1 0.0
29 H10	-3.309963  0.118399  0.497153 H	1 RES1 0.0
30 N5	-1.07  -1.853294  0.0 N.ar	1 RES1 0.0
31 C15	-2.061909  -2.185205  -0.84999 C.ar	1 RES1 0.0
32 N6	-2.582165  -3.372541  -0.625653 N.ar	1 RES1 0.0
33 C16	-1.848932  -3.867053  0.454007 C.ar	1 RES1 0.0
34 C17	-1.967839  -5.067352  1.144094 C.ar	1 RES1 0.0
35 C18	-1.123367  -5.285826  2.20661 C.ar	1 RES1 0.0
36 C19	-0.16492  -4.357379  2.572376 C.ar	1 RES1 0.0
37 C20	-0.031284  -3.158368  1.901818 C.ar	1 RES1 0.0
38 C21	-0.892974  -2.932799  0.84999 C.ar	1 RES1 0.0
39 H11	-2.396102  -1.541099  -1.636338 H	1 RES1 0.0
40 H12	-2.694183  -5.798851  0.857329 H	1 RES1 0.0
41 H13	-1.209284  -6.195225  2.763846 H	1 RES1 0.0
42 H14	0.486879  -4.57358  3.392934 H	1 RES1 0.0
43 H15	0.7069  -2.437537  2.185347 H	1 RES1 0.0
@<TRIPOS>BOND
1 1 2 1
1 1 16 1
1 1 30 1
1 2 3 1
1 2 10 1
1 3 4 2
1 3 11 1
1 4 5 1
1 5 6 2
1 5 10 1
1 6 7 1
1 6 12 1
1 7 8 2
1 7 13 1
1 8 9 1
1 8 14 1
1 9 10 2
1 9 15 1
1 16 17 1
1 16 24 1
1 17 18 2
1 17 25 1
1 18 19 1
1 19 20 2
1 19 24 1
1 20 21 1
1 20 26 1
1 21 22 2
1 21 27 1
1 22 23 1
1 22 28 1
1 23 24 2
1 23 29 1
1 30 31 1
1 30 38 1
1 31 32 2
1 31 39 1
1 32 33 1
1 33 34 2
1 33 38 1
1 34 35 1
1 34 40 1
1 35 36 2
1 35 41 1
1 36 37 1
1 36 42 1
1 37 38 2
1 37 43 1
@<TRIPOS>SUBSTRUCTURE
1 RES1 43

