@<TRIPOS>MOLECULE
/Users/abdulahmed/Documents/GitHub/HER-metal-complex-ligands/Runs//triphenylmethanethiol/triphenylmethanethiol
141	152	1
SMALL
PartialCharges
****
Generated from molSimplify

@<TRIPOS>ATOM
1 Ni1	0.0  0.0  0.0 Ni	1 RES1 0.0
2 S1	2.23  -0.0  0.0 S.3	1 RES1 0.0
3 C1	4.04  0.0  0.0 C.3	1 RES1 0.0
4 C2	4.54667  1.111047  -0.90513 C.ar	1 RES1 0.0
5 C3	5.402474  0.9029  -1.974167 C.ar	1 RES1 0.0
6 C4	5.845551  2.095  -2.594353 C.ar	1 RES1 0.0
7 C5	5.26435  3.272597  -2.454761 C.ar	1 RES1 0.0
8 C6	4.37761  3.394399  -1.421172 C.ar	1 RES1 0.0
9 C7	3.995214  2.298835  -0.685368 C.ar	1 RES1 0.0
10 C8	4.546668  0.228344  1.41476 C.ar	1 RES1 0.0
11 C9	4.907281  -0.856486  2.196851 C.ar	1 RES1 0.0
12 C10	5.024906  -0.556134  3.574532 C.ar	1 RES1 0.0
13 C11	5.149833  0.662691  4.067355 C.ar	1 RES1 0.0
14 C12	4.844048  1.694137  3.223515 C.ar	1 RES1 0.0
15 C13	4.589001  1.466489  1.892717 C.ar	1 RES1 0.0
16 C14	4.546661  -1.339393  -0.509629 C.ar	1 RES1 0.0
17 C15	3.690754  -2.415001  -0.339171 C.ar	1 RES1 0.0
18 C16	4.290785  -3.670973  -0.593231 C.ar	1 RES1 0.0
19 C17	5.413342  -3.84204  -1.267485 C.ar	1 RES1 0.0
20 C18	6.181897  -2.728005  -1.461647 C.ar	1 RES1 0.0
21 C19	5.717817  -1.480899  -1.119227 C.ar	1 RES1 0.0
22 H1	5.701396  -0.071019  -2.301316 H	1 RES1 0.0
23 H2	6.711761  2.038427  -3.219957 H	1 RES1 0.0
24 H3	5.476  4.087567  -3.11501 H	1 RES1 0.0
25 H4	3.975673  4.35673  -1.181869 H	1 RES1 0.0
26 H5	3.24627  2.403744  0.071584 H	1 RES1 0.0
27 H6	5.081131  -1.833045  1.795592 H	1 RES1 0.0
28 H7	5.011718  -1.373366  4.265081 H	1 RES1 0.0
29 H8	5.472971  0.83383  5.072935 H	1 RES1 0.0
30 H9	4.802771  2.692974  3.604986 H	1 RES1 0.0
31 H10	4.422992  2.294418  1.235545 H	1 RES1 0.0
32 H11	2.668556  -2.306003  -0.042303 H	1 RES1 0.0
33 H12	3.800942  -4.542788  -0.212581 H	1 RES1 0.0
34 H13	5.705693  -4.800886  -1.641709 H	1 RES1 0.0
35 H14	7.158807  -2.828814  -1.886364 H	1 RES1 0.0
36 H15	6.305466  -0.615904  -1.345839 H	1 RES1 0.0
37 S2	-0.743378  2.102448  0.0 S.3	1 RES1 0.0
38 C20	-1.346748  3.80892  -0.0 C.3	1 RES1 0.0
39 C21	-0.898725  4.504739  -1.274955 C.ar	1 RES1 0.0
40 C22	-0.157345  5.674599  -1.293622 C.ar	1 RES1 0.0
41 C23	0.033214  6.211934  -2.588616 C.ar	1 RES1 0.0
42 C24	-0.132603  5.536843  -3.711457 C.ar	1 RES1 0.0
43 C25	-0.814057  4.35536  -3.615702 C.ar	1 RES1 0.0
44 C26	-1.15039  3.830845  -2.391096 C.ar	1 RES1 0.0
45 C27	-2.865099  3.809472  0.070791 C.ar	1 RES1 0.0
46 C28	-3.493907  3.96963  1.294521 C.ar	1 RES1 0.0
47 C29	-4.862488  3.610491  1.287168 C.ar	1 RES1 0.0
48 C30	-5.597528  3.483104  0.197441 C.ar	1 RES1 0.0
49 C31	-4.919588  3.398472  -0.98691 C.ar	1 RES1 0.0
50 C32	-3.562684  3.607723  -1.040925 C.ar	1 RES1 0.0
51 C33	-0.783119  4.545606  1.204166 C.ar	1 RES1 0.0
52 C34	-0.444155  3.757622  2.291709 C.ar	1 RES1 0.0
53 C35	-0.163689  4.493222  3.467414 C.ar	1 RES1 0.0
54 C36	0.117431  5.783281  3.494557 C.ar	1 RES1 0.0
55 C37	-0.178085  6.493975  2.364498 C.ar	1 RES1 0.0
56 C38	-0.583619  5.858352  1.215838 C.ar	1 RES1 0.0
57 H16	0.235613  6.130597  -0.409003 H	1 RES1 0.0
58 H17	0.332481  7.236509  -2.663349 H	1 RES1 0.0
59 H18	0.245973  5.89519  -4.645891 H	1 RES1 0.0
60 H19	-1.089391  3.831686  -4.50725 H	1 RES1 0.0
61 H20	-1.619352  2.870649  -2.336334 H	1 RES1 0.0
62 H21	-2.990394  4.332058  2.166313 H	1 RES1 0.0
63 H22	-5.334723  3.429532  2.230115 H	1 RES1 0.0
64 H23	-6.66614  3.448009  0.239114 H	1 RES1 0.0
65 H24	-5.453412  3.165942  -1.884608 H	1 RES1 0.0
66 H25	-3.06359  3.60811  -1.987395 H	1 RES1 0.0
67 H26	-0.398539  2.689538  2.246816 H	1 RES1 0.0
68 H27	-0.18054  3.967704  4.399319 H	1 RES1 0.0
69 H28	0.553038  6.247389  4.354645 H	1 RES1 0.0
70 H29	-0.092307  7.560481  2.374801 H	1 RES1 0.0
71 H30	-0.740088  6.426328  0.32263 H	1 RES1 0.0
72 S3	-0.743377  -1.051212  1.820781 S.3	1 RES1 0.0
73 C39	-1.346746  -1.904437  3.298635 C.3	1 RES1 0.0
74 C40	-2.287398  -0.988155  4.064143 C.ar	1 RES1 0.0
75 C41	-2.106272  -0.633747  5.39085 C.ar	1 RES1 0.0
76 C42	-3.173219  0.12072  5.933487 C.ar	1 RES1 0.0
77 C43	-4.08299  0.754633  5.21621 C.ar	1 RES1 0.0
78 C44	-4.166339  0.408247  3.896164 C.ar	1 RES1 0.0
79 C45	-3.237151  -0.427257  3.324818 C.ar	1 RES1 0.0
80 C46	-2.09019  -3.164982  2.887883 C.ar	1 RES1 0.0
81 C47	-1.430441  -4.382863  2.89577 C.ar	1 RES1 0.0
82 C48	-2.099822  -5.402126  2.178077 C.ar	1 RES1 0.0
83 C49	-3.374128  -5.362469  1.833712 C.ar	1 RES1 0.0
84 C50	-3.987728  -4.14316  1.912642 C.ar	1 RES1 0.0
85 C51	-3.35061  -3.066992  2.481708 C.ar	1 RES1 0.0
86 C52	-0.169346  -2.276697  4.184949 C.ar	1 RES1 0.0
87 C53	1.046497  -2.436352  3.540898 C.ar	1 RES1 0.0
88 C54	2.050764  -3.02037  4.348624 C.ar	1 RES1 0.0
89 C55	2.006784  -3.087436  5.666799 C.ar	1 RES1 0.0
90 C56	0.791394  -2.852629  6.247437 C.ar	1 RES1 0.0
91 C57	-0.273116  -2.405736  5.502454 C.ar	1 RES1 0.0
92 H31	-1.23826  -0.905825  5.954259 H	1 RES1 0.0
93 H32	-3.24815  0.181898  6.999105 H	1 RES1 0.0
94 H33	-4.720592  1.49927  5.645022 H	1 RES1 0.0
95 H34	-4.966683  0.79336  3.299474 H	1 RES1 0.0
96 H35	-3.279246  -0.627746  2.274612 H	1 RES1 0.0
97 H36	-0.499088  -4.538744  3.398943 H	1 RES1 0.0
98 H37	-1.534202  -6.265053  1.894651 H	1 RES1 0.0
99 H38	-3.898229  -6.237475  1.510321 H	1 RES1 0.0
100 H39	-4.978323  -4.025322  1.525686 H	1 RES1 0.0
101 H40	-3.874861  -2.141578  2.59863 H	1 RES1 0.0
102 H41	1.211331  -2.144518  2.524747 H	1 RES1 0.0
103 H42	2.905268  -3.436623  3.857242 H	1 RES1 0.0
104 H43	2.875557  -3.313377  6.249108 H	1 RES1 0.0
105 H44	0.667455  -3.019288  7.297087 H	1 RES1 0.0
106 H45	-1.194067  -2.159468  5.988357 H	1 RES1 0.0
107 S4	-0.743377  -1.051212  -1.820781 S.3	1 RES1 0.0
108 C58	-1.346746  -1.904437  -3.298635 C.3	1 RES1 0.0
109 C59	-2.67573  -1.302003  -3.7244 C.ar	1 RES1 0.0
110 C60	-3.841061  -2.035794  -3.873123 C.ar	1 RES1 0.0
111 C61	-4.92252  -1.293055  -4.403063 C.ar	1 RES1 0.0
112 C62	-4.984709  0.025869  -4.427316 C.ar	1 RES1 0.0
113 C63	-3.812637  0.694108  -4.205611 C.ar	1 RES1 0.0
114 C64	-2.680091  0.022956  -3.812177 C.ar	1 RES1 0.0
115 C65	-0.335806  -1.747099  -4.422754 C.ar	1 RES1 0.0
116 C66	0.586605  -2.752699  -4.660438 C.ar	1 RES1 0.0
117 C67	1.67117  -2.354433  -5.477233 C.ar	1 RES1 0.0
118 C68	1.673256  -1.283203  -6.249553 C.ar	1 RES1 0.0
119 C69	0.695069  -0.358551  -6.009515 C.ar	1 RES1 0.0
120 C70	-0.325586  -0.622184  -5.128234 C.ar	1 RES1 0.0
121 C71	-1.535397  -3.380731  -2.989821 C.ar	1 RES1 0.0
122 C72	-0.752324  -3.890148  -1.967151 C.ar	1 RES1 0.0
123 C73	-0.772562  -5.302166  -1.87856 C.ar	1 RES1 0.0
124 C74	-1.689  -6.074348  -2.433441 C.ar	1 RES1 0.0
125 C75	-2.476345  -5.493596  -3.388567 C.ar	1 RES1 0.0
126 C76	-2.420281  -4.141063  -3.623948 C.ar	1 RES1 0.0
127 H46	-3.916603  -3.070446  -3.611038 H	1 RES1 0.0
128 H47	-5.747309  -1.837907  -4.812648 H	1 RES1 0.0
129 H48	-5.902944  0.543701  -4.610609 H	1 RES1 0.0
130 H49	-3.776849  1.754976  -4.340433 H	1 RES1 0.0
131 H50	-1.793602  0.572942  -3.574368 H	1 RES1 0.0
132 H51	0.487948  -3.741028  -4.262478 H	1 RES1 0.0
133 H52	2.550821  -2.963562  -5.468545 H	1 RES1 0.0
134 H53	2.401293  -1.146238  -7.02163 H	1 RES1 0.0
135 H54	0.724819  0.583925  -6.515237 H	1 RES1 0.0
136 H55	-1.119378  0.085388  -5.00934 H	1 RES1 0.0
137 H56	-0.183688  -3.271964  -1.304277 H	1 RES1 0.0
138 H57	0.009014  -5.777359  -1.323375 H	1 RES1 0.0
139 H58	-1.808918  -7.099343  -2.150767 H	1 RES1 0.0
140 H59	-3.145794  -6.101134  -3.960961 H	1 RES1 0.0
141 H60	-3.095789  -3.696429  -4.324583 H	1 RES1 0.0
@<TRIPOS>BOND
1 1 2 1
1 1 37 1
1 1 72 1
1 1 107 1
1 2 3 1
1 3 4 1
1 3 10 1
1 3 16 1
1 4 5 2
1 4 9 1
1 5 6 1
1 5 22 1
1 6 7 2
1 6 23 1
1 7 8 1
1 7 24 1
1 8 9 2
1 8 25 1
1 9 26 1
1 10 11 2
1 10 15 1
1 11 12 1
1 11 27 1
1 12 13 2
1 12 28 1
1 13 14 1
1 13 29 1
1 14 15 2
1 14 30 1
1 15 31 1
1 16 17 2
1 16 21 1
1 17 18 1
1 17 32 1
1 18 19 2
1 18 33 1
1 19 20 1
1 19 34 1
1 20 21 2
1 20 35 1
1 21 36 1
1 37 38 1
1 38 39 1
1 38 45 1
1 38 51 1
1 39 40 2
1 39 44 1
1 40 41 1
1 40 57 1
1 41 42 2
1 41 58 1
1 42 43 1
1 42 59 1
1 43 44 2
1 43 60 1
1 44 61 1
1 45 46 2
1 45 50 1
1 46 47 1
1 46 62 1
1 47 48 2
1 47 63 1
1 48 49 1
1 48 64 1
1 49 50 2
1 49 65 1
1 50 66 1
1 51 52 2
1 51 56 1
1 52 53 1
1 52 67 1
1 53 54 2
1 53 68 1
1 54 55 1
1 54 69 1
1 55 56 2
1 55 70 1
1 56 71 1
1 72 73 1
1 73 74 1
1 73 80 1
1 73 86 1
1 74 75 2
1 74 79 1
1 75 76 1
1 75 92 1
1 76 77 2
1 76 93 1
1 77 78 1
1 77 94 1
1 78 79 2
1 78 95 1
1 79 96 1
1 80 81 2
1 80 85 1
1 81 82 1
1 81 97 1
1 82 83 2
1 82 98 1
1 83 84 1
1 83 99 1
1 84 85 2
1 84 100 1
1 85 101 1
1 86 87 2
1 86 91 1
1 87 88 1
1 87 102 1
1 88 89 2
1 88 103 1
1 89 90 1
1 89 104 1
1 90 91 2
1 90 105 1
1 91 106 1
1 107 108 1
1 108 109 1
1 108 115 1
1 108 121 1
1 109 110 2
1 109 114 1
1 110 111 1
1 110 127 1
1 111 112 2
1 111 128 1
1 112 113 1
1 112 129 1
1 113 114 2
1 113 130 1
1 114 131 1
1 115 116 2
1 115 120 1
1 116 117 1
1 116 132 1
1 117 118 2
1 117 133 1
1 118 119 1
1 118 134 1
1 119 120 2
1 119 135 1
1 120 136 1
1 121 122 2
1 121 126 1
1 122 123 1
1 122 137 1
1 123 124 2
1 123 138 1
1 124 125 1
1 124 139 1
1 125 126 2
1 125 140 1
1 126 141 1
@<TRIPOS>SUBSTRUCTURE
1 RES1 141

