@<TRIPOS>MOLECULE
/Users/abdulahmed/Documents/GitHub/HER-metal-complex-ligands/Runs//2-Mercapto-6-methylpyridine/2-Mercapto-6-methylpyridine
43	48	1
SMALL
PartialCharges
****
Generated from molSimplify

@<TRIPOS>ATOM
1 Ni1	0.0  0.0  0.0 Ni	1 RES1 0.0
2 C1	3.351694  -1.515176  -0.008846 C.3	1 RES1 0.0
3 C2	3.126274  -0.035383  0.019354 C.3	1 RES1 0.0
4 C3	4.210299  0.838358  0.063369 C.2	1 RES1 0.0
5 C4	3.961192  2.206298  0.088523 C.2	1 RES1 0.0
6 C5	2.644974  2.657287  0.06907 C.2	1 RES1 0.0
7 C6	1.629072  1.715885  0.025066 C.2	1 RES1 0.0
8 S1	0.0  2.23  0.0 S.3	1 RES1 0.0
9 N1	1.842476  0.387524  -0.0 N.pl3	1 RES1 0.0
10 H1	2.400237  -2.055804  -0.042397 H	1 RES1 0.0
11 H2	3.891704  -1.832763  0.888564 H	1 RES1 0.0
12 H3	3.9318  -1.792677  -0.894445 H	1 RES1 0.0
13 H4	5.226085  0.463616  0.077781 H	1 RES1 0.0
14 H5	4.776963  2.918835  0.122882 H	1 RES1 0.0
15 H6	2.421752  3.717927  0.087897 H	1 RES1 0.0
16 C7	-0.008846  1.515176  3.351694 C.3	1 RES1 0.0
17 C8	0.019354  0.035383  3.126274 C.3	1 RES1 0.0
18 C9	0.063369  -0.838358  4.210299 C.2	1 RES1 0.0
19 C10	0.088523  -2.206298  3.961192 C.2	1 RES1 0.0
20 C11	0.06907  -2.657287  2.644974 C.2	1 RES1 0.0
21 C12	0.025066  -1.715885  1.629072 C.2	1 RES1 0.0
22 S2	0.0  -2.23  0.0 S.3	1 RES1 0.0
23 N2	0.0  -0.387524  1.842476 N.pl3	1 RES1 0.0
24 H7	-0.042397  2.055804  2.400237 H	1 RES1 0.0
25 H8	0.888564  1.832763  3.891704 H	1 RES1 0.0
26 H9	-0.894445  1.792677  3.9318 H	1 RES1 0.0
27 H10	0.077781  -0.463616  5.226085 H	1 RES1 0.0
28 H11	0.122882  -2.918835  4.776963 H	1 RES1 0.0
29 H12	0.087897  -3.717927  2.421752 H	1 RES1 0.0
30 C13	1.515176  -0.008846  -3.351694 C.3	1 RES1 0.0
31 C14	0.035383  0.019354  -3.126274 C.3	1 RES1 0.0
32 C15	-0.838358  0.063369  -4.210299 C.2	1 RES1 0.0
33 C16	-2.206298  0.088523  -3.961192 C.2	1 RES1 0.0
34 C17	-2.657287  0.06907  -2.644974 C.2	1 RES1 0.0
35 C18	-1.715885  0.025066  -1.629072 C.2	1 RES1 0.0
36 S3	-2.23  0.0  0.0 S.3	1 RES1 0.0
37 N3	-0.387524  -0.0  -1.842476 N.pl3	1 RES1 0.0
38 H13	2.055804  -0.042397  -2.400237 H	1 RES1 0.0
39 H14	1.832763  0.888564  -3.891704 H	1 RES1 0.0
40 H15	1.792677  -0.894445  -3.9318 H	1 RES1 0.0
41 H16	-0.463616  0.077781  -5.226085 H	1 RES1 0.0
42 H17	-2.918835  0.122882  -4.776963 H	1 RES1 0.0
43 H18	-3.717927  0.087897  -2.421752 H	1 RES1 0.0
@<TRIPOS>BOND
1 1 8 1
1 1 9 1
1 1 22 1
1 1 23 1
1 1 36 1
1 1 37 1
1 2 3 1
1 2 10 1
1 2 11 1
1 2 12 1
1 3 4 1
1 3 9 1
1 4 5 2
1 4 13 1
1 5 6 1
1 5 14 1
1 6 7 2
1 6 15 1
1 7 8 1
1 7 9 1
1 16 17 1
1 16 24 1
1 16 25 1
1 16 26 1
1 17 18 1
1 17 23 1
1 18 19 2
1 18 27 1
1 19 20 1
1 19 28 1
1 20 21 2
1 20 29 1
1 21 22 1
1 21 23 1
1 30 31 1
1 30 38 1
1 30 39 1
1 30 40 1
1 31 32 1
1 31 37 1
1 32 33 2
1 32 41 1
1 33 34 1
1 33 42 1
1 34 35 2
1 34 43 1
1 35 36 1
1 35 37 1
@<TRIPOS>SUBSTRUCTURE
1 RES1 43

