@<TRIPOS>MOLECULE
/home/jovyan/shared-scratch-kabdelma-pvc/kabdelma/HER-metal-complex-ligands/Runs//fe_one_2_benzimidazole_1_s_5/fe_one_2_benzimidazole_1_s_5_conf_1
15	16	1
SMALL
PartialCharges
****
Generated from molSimplify

@<TRIPOS>ATOM
1 Fe1	0.0  0.0  0.0 Fe	1 RES1 0.0
2 N1	2.1  0.0  0.0 N.ar	1 RES1 0.0
3 C1	2.883397  -0.175214  -1.082644 C.ar	1 RES1 0.0
4 N2	4.171789  -0.163443  -0.816806 N.ar	1 RES1 0.0
5 C2	4.233432  0.060781  0.559334 C.ar	1 RES1 0.0
6 C3	5.332375  0.146302  1.405554 C.ar	1 RES1 0.0
7 C4	5.099342  0.343001  2.746005 C.ar	1 RES1 0.0
8 C5	3.81606  0.476923  3.245676 C.ar	1 RES1 0.0
9 C6	2.710868  0.393242  2.423069 C.ar	1 RES1 0.0
10 C7	2.946365  0.175214  1.082644 C.ar	1 RES1 0.0
11 H1	2.492683  -0.311591  -2.069378 H	1 RES1 0.0
12 H2	6.329044  0.061675  1.025567 H	1 RES1 0.0
13 H3	5.929864  0.393726  3.418732 H	1 RES1 0.0
14 H4	3.677397  0.649111  4.292587 H	1 RES1 0.0
15 H5	1.717519  0.492986  2.808047 H	1 RES1 0.0
@<TRIPOS>BOND
1 1 2 1
1 2 3 1
1 2 10 1
1 3 4 2
1 3 11 1
1 4 5 1
1 5 6 2
1 5 10 1
1 6 7 1
1 6 12 1
1 7 8 2
1 7 13 1
1 8 9 1
1 8 14 1
1 9 10 2
1 9 15 1
@<TRIPOS>SUBSTRUCTURE
1 RES1 15

