@<TRIPOS>MOLECULE
/Users/abdulahmed/Documents/GitHub/HER-metal-complex-ligands/Runs//Ni_config2_H2_activation/Ni_config2_H2_activation
48	52	2
SMALL
PartialCharges
****
Generated from molSimplify

@<TRIPOS>ATOM
1 Ni1	0.0  0.0  0.0 Ni	1 RES1 0.0
2 N1	0.0  2.14  0.0 N.pl3	1 RES1 0.0
3 C1	1.326305  2.618269  -0.039014 C.ar	1 RES1 0.0
4 C2	1.556768  3.98248  -0.248572 C.ar	1 RES1 0.0
5 C3	2.856788  4.473919  -0.389636 C.ar	1 RES1 0.0
6 C4	3.940215  3.599447  -0.362773 C.ar	1 RES1 0.0
7 C5	3.722651  2.228812  -0.224927 C.ar	1 RES1 0.0
8 C6	2.420403  1.733016  -0.094168 C.ar	1 RES1 0.0
9 S1	2.175163  -0.035163  -0.0 S.3	1 RES1 0.0
10 H1	-0.658402  2.819968  0.367863 H	1 RES1 0.0
11 H2	-0.060163  1.251013  0.492989 H	1 RES1 0.0
12 H3	0.72232  4.67695  -0.298081 H	1 RES1 0.0
13 H4	3.020948  5.539132  -0.531023 H	1 RES1 0.0
14 H5	4.952069  3.980927  -0.47244 H	1 RES1 0.0
15 H6	4.572442  1.550701  -0.237649 H	1 RES1 0.0
16 H7	1.200738  -0.066288  -0.922328 H	1 RES1 0.0
17 N2	0.0  -2.14  0.0 N.pl3	1 RES1 0.0
18 C7	-0.039014  -2.618269  1.326305 C.ar	1 RES1 0.0
19 C8	-0.248572  -3.98248  1.556768 C.ar	1 RES1 0.0
20 C9	-0.389636  -4.473919  2.856788 C.ar	1 RES1 0.0
21 C10	-0.362773  -3.599447  3.940215 C.ar	1 RES1 0.0
22 C11	-0.224927  -2.228812  3.722651 C.ar	1 RES1 0.0
23 C12	-0.094168  -1.733016  2.420403 C.ar	1 RES1 0.0
24 S2	-0.0  0.035163  2.175163 S.3	1 RES1 0.0
25 H8	0.367863  -2.819968  -0.658402 H	1 RES1 0.0
26 H9	0.492989  -1.251013  -0.060163 H	1 RES1 0.0
27 H10	-0.298081  -4.67695  0.72232 H	1 RES1 0.0
28 H11	-0.531023  -5.539132  3.020948 H	1 RES1 0.0
29 H12	-0.47244  -3.980927  4.952069 H	1 RES1 0.0
30 H13	-0.237649  -1.550701  4.572442 H	1 RES1 0.0
31 H14	-0.922328  0.066288  1.200738 H	1 RES1 0.0
32 N3	-5.147367  0.012301  0.56205 N.4	1 RES1 0.0
33 C13	-4.827329  0.051046  -0.872166 C.3	1 RES1 0.0
34 C14	-5.832142  0.111143  -1.877614 C.3	1 RES1 0.0
35 C15	-5.478585  -0.108403  -3.219012 C.2	1 RES1 0.0
36 C16	-4.227194  -0.092885  -3.573035 C.2	1 RES1 0.0
37 C17	-3.230459  0.153311  -2.619439 C.2	1 RES1 0.0
38 C18	-3.545448  0.072642  -1.241137 C.2	1 RES1 0.0
39 S3	-2.23  0.0  0.0 S.3	1 RES1 0.0
40 H15	-4.640403  -0.484344  -0.17057 H	1 RES1 0.0
41 H16	-4.99334  1.01088  0.70175 H	1 RES1 0.0
42 H17	-5.808359  -0.489633  1.154968 H	1 RES1 0.0
43 H18	-6.847655  0.321625  -1.614309 H	1 RES1 0.0
44 H19	-6.238991  -0.28849  -3.949938 H	1 RES1 0.0
45 H20	-3.958456  -0.26834  -4.593768 H	1 RES1 0.0
46 H21	-2.237149  0.400815  -2.930849 H	1 RES1 0.0
47 H22	-2.781274  -0.072642  1.241137 H	1 RES1 0.0
48 H23	-0.0  0.0  -1.58 H	2 RES2 0.0
@<TRIPOS>BOND
1 1 2 1
1 1 9 1
1 1 17 1
1 1 24 1
1 1 39 1
1 2 3 1
1 2 10 1
1 2 11 1
1 3 4 2
1 3 8 1
1 4 5 1
1 4 12 1
1 5 6 2
1 5 13 1
1 6 7 1
1 6 14 1
1 7 8 2
1 7 15 1
1 8 9 1
1 9 16 1
1 17 18 1
1 17 25 1
1 17 26 1
1 18 19 2
1 18 23 1
1 19 20 1
1 19 27 1
1 20 21 2
1 20 28 1
1 21 22 1
1 21 29 1
1 22 23 2
1 22 30 1
1 23 24 1
1 24 31 1
1 32 33 1
1 32 40 1
1 32 41 1
1 32 42 1
1 33 34 1
1 33 38 1
1 33 40 1
1 34 35 1
1 34 43 1
1 35 36 2
1 35 44 1
1 36 37 1
1 36 45 1
1 37 38 2
1 37 46 1
1 38 39 1
1 39 47 1
@<TRIPOS>SUBSTRUCTURE
1 RES1 47
2 RES2 1

