@<TRIPOS>MOLECULE
/Users/abdulahmed/Documents/GitHub/HER-metal-complex-ligands/Runs//benzimidazole_hydride/benzimidazole_hydride
47	51	2
SMALL
PartialCharges
****
Generated from molSimplify

@<TRIPOS>ATOM
1 Ni1	0.0  0.0  0.0 Ni	1 RES1 0.0
2 N1	4.228021  0.752424  -0.245408 N.pl3	1 RES1 0.0
3 C1	2.909026  1.005452  -0.358369 C.3	1 RES1 0.0
4 N2	2.14  0.0  0.0 N.pl3	1 RES1 0.0
5 C2	3.039153  -1.005452  0.358369 C.ar	1 RES1 0.0
6 C3	2.805126  -2.286842  0.842464 C.ar	1 RES1 0.0
7 C4	3.893719  -3.067572  1.151059 C.ar	1 RES1 0.0
8 C5	5.187047  -2.611545  0.96732 C.ar	1 RES1 0.0
9 C6	5.44162  -1.341828  0.489675 C.ar	1 RES1 0.0
10 C7	4.348517  -0.553578  0.200679 C.ar	1 RES1 0.0
11 H1	4.990762  1.398263  -0.449165 H	1 RES1 0.0
12 H2	2.522235  1.939828  -0.707989 H	1 RES1 0.0
13 H3	1.808505  -2.654424  0.971033 H	1 RES1 0.0
14 H4	3.73718  -4.051005  1.542538 H	1 RES1 0.0
15 H5	6.007747  -3.257253  1.200585 H	1 RES1 0.0
16 H6	6.441048  -0.986015  0.350241 H	1 RES1 0.0
17 N3	-0.674742  4.245953  0.138303 N.pl3	1 RES1 0.0
18 C8	0.016005  3.091171  0.214949 C.3	1 RES1 0.0
19 N4	-0.713377  2.017596  -0.0 N.pl3	1 RES1 0.0
20 C9	-1.998852  2.516784  -0.214949 C.ar	1 RES1 0.0
21 C10	-3.180697  1.850685  -0.515999 C.ar	1 RES1 0.0
22 C11	-4.312986  2.604969  -0.712934 C.ar	1 RES1 0.0
23 C12	-4.294253  3.983385  -0.594449 C.ar	1 RES1 0.0
24 C13	-3.131001  4.664702  -0.298164 C.ar	1 RES1 0.0
25 C14	-1.99276  3.907738  -0.121683 C.ar	1 RES1 0.0
26 H7	-0.299296  5.187718  0.250194 H	1 RES1 0.0
27 H8	1.063176  3.051169  0.431127 H	1 RES1 0.0
28 H9	-3.208525  0.783761  -0.592159 H	1 RES1 0.0
29 H10	-5.230329  2.114581  -0.963735 H	1 RES1 0.0
30 H11	-5.201294  4.533166  -0.735579 H	1 RES1 0.0
31 H12	-3.113672  5.73089  -0.209605 H	1 RES1 0.0
32 N5	-1.081606  -1.435309  3.90801 N.pl3	1 RES1 0.0
33 C15	-0.503262  -0.634665  2.99094 C.3	1 RES1 0.0
34 N6	-0.713375  -1.008786  1.747297 N.pl3	1 RES1 0.0
35 C16	-1.479581  -2.169279  1.865711 C.ar	1 RES1 0.0
36 C17	-2.021616  -2.989943  0.883985 C.ar	1 RES1 0.0
37 C18	-2.775026  -4.066438  1.288137 C.ar	1 RES1 0.0
38 C19	-2.974797  -4.348056  2.627988 C.ar	1 RES1 0.0
39 C20	-2.447166  -3.544975  3.618846 C.ar	1 RES1 0.0
40 C21	-1.709565  -2.454482  3.210798 C.ar	1 RES1 0.0
41 H13	-1.060919  -1.314143  4.920577 H	1 RES1 0.0
42 H14	0.074655  0.227495  3.250926 H	1 RES1 0.0
43 H15	-1.857642  -2.790146  -0.154327 H	1 RES1 0.0
44 H16	-3.217338  -4.701456  0.54921 H	1 RES1 0.0
45 H17	-3.550863  -5.207113  2.901979 H	1 RES1 0.0
46 H18	-2.603475  -3.759019  4.6555 H	1 RES1 0.0
47 H19	-0.526698  -0.744805  -1.29006 H	2 RES2 0.0
@<TRIPOS>BOND
1 1 4 1
1 1 19 1
1 1 34 1
1 2 3 1
1 2 10 1
1 2 11 1
1 3 4 1
1 3 12 1
1 4 5 1
1 5 6 2
1 5 10 1
1 6 7 1
1 6 13 1
1 7 8 2
1 7 14 1
1 8 9 1
1 8 15 1
1 9 10 2
1 9 16 1
1 17 18 1
1 17 25 1
1 17 26 1
1 18 19 1
1 18 27 1
1 19 20 1
1 20 21 2
1 20 25 1
1 21 22 1
1 21 28 1
1 22 23 2
1 22 29 1
1 23 24 1
1 23 30 1
1 24 25 2
1 24 31 1
1 32 33 1
1 32 40 1
1 32 41 1
1 33 34 1
1 33 42 1
1 34 35 1
1 35 36 2
1 35 40 1
1 36 37 1
1 36 43 1
1 37 38 2
1 37 44 1
1 38 39 1
1 38 45 1
1 39 40 2
1 39 46 1
@<TRIPOS>SUBSTRUCTURE
1 RES1 46
2 RES2 1

