@<TRIPOS>MOLECULE
/Users/abdulahmed/Documents/GitHub/HER-metal-complex-ligands/Runs//8_mercaptoquinoline_hydrochloride/8_mercaptoquinoline_hydrochloride
52	60	1
SMALL
PartialCharges
****
Generated from molSimplify

@<TRIPOS>ATOM
1 Ni1	0.0  0.0  0.0 Ni	1 RES1 0.0
2 S1	0.0  2.249802  0.0 S.3	1 RES1 0.0
3 C1	1.726143  2.437042  0.052363 C.2	1 RES1 0.0
4 C2	2.191736  3.760217  0.101316 C.2	1 RES1 0.0
5 C3	3.555136  4.024736  0.145867 C.2	1 RES1 0.0
6 C4	4.456931  2.967459  0.14161 C.3	1 RES1 0.0
7 C5	4.001145  1.638026  0.092754 C.2	1 RES1 0.0
8 C6	4.926939  0.583404  0.089227 C.2	1 RES1 0.0
9 C7	4.488381  -0.731344  0.041245 C.2	1 RES1 0.0
10 C8	3.129096  -0.948496  -0.001896 C.2	1 RES1 0.0
11 N1	2.212959  0.036843  -0.0 N.pl3	1 RES1 0.0
12 C9	2.616199  1.336793  0.04661 C.2	1 RES1 0.0
13 H1	1.487638  4.589409  0.104741 H	1 RES1 0.0
14 H2	3.903859  5.051023  0.183496 H	1 RES1 0.0
15 H3	5.520081  3.18554  0.176673 H	1 RES1 0.0
16 H4	5.993058  0.785957  0.123945 H	1 RES1 0.0
17 H5	5.184156  -1.559871  0.03761 H	1 RES1 0.0
18 H6	2.714752  -1.950196  -0.040648 H	1 RES1 0.0
19 S2	0.0  -2.249802  0.0 S.3	1 RES1 0.0
20 C10	0.052363  -2.437042  1.726143 C.2	1 RES1 0.0
21 C11	0.101316  -3.760217  2.191736 C.2	1 RES1 0.0
22 C12	0.145867  -4.024736  3.555136 C.2	1 RES1 0.0
23 C13	0.14161  -2.967459  4.456931 C.3	1 RES1 0.0
24 C14	0.092754  -1.638026  4.001145 C.2	1 RES1 0.0
25 C15	0.089227  -0.583404  4.926939 C.2	1 RES1 0.0
26 C16	0.041245  0.731344  4.488381 C.2	1 RES1 0.0
27 C17	-0.001896  0.948496  3.129096 C.2	1 RES1 0.0
28 N2	-0.0  -0.036843  2.212959 N.pl3	1 RES1 0.0
29 C18	0.04661  -1.336793  2.616199 C.2	1 RES1 0.0
30 H7	0.104741  -4.589409  1.487638 H	1 RES1 0.0
31 H8	0.183496  -5.051023  3.903859 H	1 RES1 0.0
32 H9	0.176673  -3.18554  5.520081 H	1 RES1 0.0
33 H10	0.123945  -0.785957  5.993058 H	1 RES1 0.0
34 H11	0.03761  1.559871  5.184156 H	1 RES1 0.0
35 H12	-0.040648  1.950196  2.714752 H	1 RES1 0.0
36 S3	-2.249802  0.0  0.0 S.3	1 RES1 0.0
37 C19	-2.437042  0.052363  -1.726143 C.2	1 RES1 0.0
38 C20	-3.760217  0.101316  -2.191736 C.2	1 RES1 0.0
39 C21	-4.024736  0.145867  -3.555136 C.2	1 RES1 0.0
40 C22	-2.967459  0.14161  -4.456931 C.3	1 RES1 0.0
41 C23	-1.638026  0.092754  -4.001145 C.2	1 RES1 0.0
42 C24	-0.583404  0.089227  -4.926939 C.2	1 RES1 0.0
43 C25	0.731344  0.041245  -4.488381 C.2	1 RES1 0.0
44 C26	0.948496  -0.001896  -3.129096 C.2	1 RES1 0.0
45 N3	-0.036843  0.0  -2.212959 N.pl3	1 RES1 0.0
46 C27	-1.336793  0.04661  -2.616199 C.2	1 RES1 0.0
47 H13	-4.589409  0.104741  -1.487638 H	1 RES1 0.0
48 H14	-5.051023  0.183496  -3.903859 H	1 RES1 0.0
49 H15	-3.18554  0.176673  -5.520081 H	1 RES1 0.0
50 H16	-0.785957  0.123945  -5.993058 H	1 RES1 0.0
51 H17	1.559871  0.03761  -5.184156 H	1 RES1 0.0
52 H18	1.950196  -0.040648  -2.714752 H	1 RES1 0.0
@<TRIPOS>BOND
1 1 2 1
1 1 11 1
1 1 19 1
1 1 28 1
1 1 36 1
1 1 45 1
1 2 3 1
1 3 4 1
1 3 12 2
1 4 5 2
1 4 13 1
1 5 6 1
1 5 14 1
1 6 7 1
1 6 15 1
1 7 8 2
1 7 12 1
1 8 9 1
1 8 16 1
1 9 10 2
1 9 17 1
1 10 11 1
1 10 18 1
1 11 12 1
1 19 20 1
1 20 21 1
1 20 29 2
1 21 22 2
1 21 30 1
1 22 23 1
1 22 31 1
1 23 24 1
1 23 32 1
1 24 25 2
1 24 29 1
1 25 26 1
1 25 33 1
1 26 27 2
1 26 34 1
1 27 28 1
1 27 35 1
1 28 29 1
1 36 37 1
1 37 38 1
1 37 46 2
1 38 39 2
1 38 47 1
1 39 40 1
1 39 48 1
1 40 41 1
1 40 49 1
1 41 42 2
1 41 46 1
1 42 43 1
1 42 50 1
1 43 44 2
1 43 51 1
1 44 45 1
1 44 52 1
1 45 46 1
@<TRIPOS>SUBSTRUCTURE
1 RES1 52

