@<TRIPOS>MOLECULE
/Users/abdulahmed/Documents/GitHub/HER-metal-complex-ligands/Runs//2_aminobenzethiol/2_aminobenzethiol
40	45	1
SMALL
PartialCharges
****
Generated from molSimplify

@<TRIPOS>ATOM
1 Ni1	0.0  0.0  0.0 Ni	1 RES1 0.0
2 N1	0.0  2.14  0.0 N.pl3	1 RES1 0.0
3 C1	1.295213  2.535809  0.021712 C.ar	1 RES1 0.0
4 C2	1.594679  3.913676  0.043249 C.ar	1 RES1 0.0
5 C3	2.907574  4.39646  0.066305 C.ar	1 RES1 0.0
6 C4	3.970351  3.503686  0.068488 C.ar	1 RES1 0.0
7 C5	3.713329  2.133347  0.047593 C.ar	1 RES1 0.0
8 C6	2.395801  1.645239  0.024409 C.ar	1 RES1 0.0
9 S1	2.221736  -0.081736  0.0 S.3	1 RES1 0.0
10 H1	-0.591546  2.973377  0.003105 H	1 RES1 0.0
11 H2	0.77499  4.625634  0.041866 H	1 RES1 0.0
12 H3	3.083525  5.463746  0.082268 H	1 RES1 0.0
13 H4	4.991927  3.858028  0.086155 H	1 RES1 0.0
14 H5	4.544453  1.435637  0.049306 H	1 RES1 0.0
15 N2	0.0  -2.14  0.0 N.pl3	1 RES1 0.0
16 C7	0.021712  -2.535809  1.295213 C.ar	1 RES1 0.0
17 C8	0.043249  -3.913676  1.594679 C.ar	1 RES1 0.0
18 C9	0.066305  -4.39646  2.907574 C.ar	1 RES1 0.0
19 C10	0.068488  -3.503686  3.970351 C.ar	1 RES1 0.0
20 C11	0.047593  -2.133347  3.713329 C.ar	1 RES1 0.0
21 C12	0.024409  -1.645239  2.395801 C.ar	1 RES1 0.0
22 S2	-0.0  0.081736  2.221736 S.3	1 RES1 0.0
23 H6	0.003105  -2.973377  -0.591546 H	1 RES1 0.0
24 H7	0.041866  -4.625634  0.77499 H	1 RES1 0.0
25 H8	0.082268  -5.463746  3.083525 H	1 RES1 0.0
26 H9	0.086155  -3.858028  4.991927 H	1 RES1 0.0
27 H10	0.049306  -1.435637  4.544453 H	1 RES1 0.0
28 N3	-2.14  0.0  -0.0 N.pl3	1 RES1 0.0
29 C13	-2.535809  0.021712  -1.295213 C.ar	1 RES1 0.0
30 C14	-3.913676  0.043249  -1.594679 C.ar	1 RES1 0.0
31 C15	-4.39646  0.066305  -2.907574 C.ar	1 RES1 0.0
32 C16	-3.503686  0.068488  -3.970351 C.ar	1 RES1 0.0
33 C17	-2.133347  0.047593  -3.713329 C.ar	1 RES1 0.0
34 C18	-1.645239  0.024409  -2.395801 C.ar	1 RES1 0.0
35 S3	0.081736  0.0  -2.221736 S.3	1 RES1 0.0
36 H11	-2.973377  0.003105  0.591546 H	1 RES1 0.0
37 H12	-4.625634  0.041866  -0.77499 H	1 RES1 0.0
38 H13	-5.463746  0.082268  -3.083525 H	1 RES1 0.0
39 H14	-3.858028  0.086155  -4.991927 H	1 RES1 0.0
40 H15	-1.435637  0.049306  -4.544453 H	1 RES1 0.0
@<TRIPOS>BOND
1 1 2 1
1 1 9 1
1 1 15 1
1 1 22 1
1 1 28 1
1 1 35 1
1 2 3 1
1 2 10 1
1 3 4 2
1 3 8 1
1 4 5 1
1 4 11 1
1 5 6 2
1 5 12 1
1 6 7 1
1 6 13 1
1 7 8 2
1 7 14 1
1 8 9 1
1 15 16 1
1 15 23 1
1 16 17 2
1 16 21 1
1 17 18 1
1 17 24 1
1 18 19 2
1 18 25 1
1 19 20 1
1 19 26 1
1 20 21 2
1 20 27 1
1 21 22 1
1 28 29 1
1 28 36 1
1 29 30 2
1 29 34 1
1 30 31 1
1 30 37 1
1 31 32 2
1 31 38 1
1 32 33 1
1 32 39 1
1 33 34 2
1 33 40 1
1 34 35 1
@<TRIPOS>SUBSTRUCTURE
1 RES1 40

