@<TRIPOS>MOLECULE
/Users/abdulahmed/Documents/GitHub/HER-metal-complex-ligands/Runs//ethyl_piperidine_3_carboxylate_hydride/ethyl_piperidine_3_carboxylate_hydride
127	163	2
SMALL
PartialCharges
****
Generated from molSimplify

@<TRIPOS>ATOM
1 Ni1	0.0  0.0  0.0 Ni	1 RES1 0.0
2 C1	-4.113505  1.232466  -1.730396 C.3	1 RES1 0.0
3 C2	-3.020372  1.138142  -2.782329 C.3	1 RES1 0.0
4 O1	-1.866809  1.831562  -2.329714 O.3	1 RES1 0.0
5 C3	-1.941854  3.218912  -2.036412 C.3	1 RES1 0.0
6 O2	-3.041458  3.839981  -2.178998 O.3	1 RES1 0.0
7 C4	-0.707053  3.961164  -1.551922 C.3	1 RES1 0.0
8 C5	-1.125276  4.776716  -0.326239 C.3	1 RES1 0.0
9 C6	-1.497775  3.889941  0.730865 C.3	1 RES1 0.0
10 C7	-0.445734  3.02637  1.165376 C.3	1 RES1 0.0
11 N1	0.0  2.14  0.0 N.3	1 RES1 0.0
12 C8	0.445734  3.028769  -1.165376 C.3	1 RES1 0.0
13 H1	-3.768808  0.793536  -0.817476 H	1 RES1 0.0
14 H2	-4.98274  0.709959  -2.071451 H	1 RES1 0.0
15 H3	-4.358478  2.260303  -1.561755 H	1 RES1 0.0
16 H4	-2.775402  0.110305  -2.950971 H	1 RES1 0.0
17 H5	-3.365071  1.577073  -3.695249 H	1 RES1 0.0
18 H6	-0.344695  4.574362  -2.350412 H	1 RES1 0.0
19 H7	-0.306628  5.387694  -0.007775 H	1 RES1 0.0
20 H8	-1.957599  5.399701  -0.579278 H	1 RES1 0.0
21 H9	-2.274413  3.261643  0.347491 H	1 RES1 0.0
22 H10	-1.816577  4.47786  1.566099 H	1 RES1 0.0
23 H11	-0.797044  2.411442  1.967463 H	1 RES1 0.0
24 H12	0.381906  3.61437  1.503264 H	1 RES1 0.0
25 H13	0.713408  2.418956  -2.00286 H	1 RES1 0.0
26 H14	1.293452  3.610469  -0.868899 H	1 RES1 0.0
27 C9	1.232466  -4.409938  0.683849 C.3	1 RES1 0.0
28 C10	1.138142  -3.603761  1.968988 C.3	1 RES1 0.0
29 O3	1.831562  -2.374965  1.808889 O.3	1 RES1 0.0
30 C11	3.218912  -2.376825  1.506145 C.2	1 RES1 0.0
31 O4	3.839981  -3.478261  1.378477 O.2	1 RES1 0.0
32 C12	3.961164  -1.061495  1.334772 C.3	1 RES1 0.0
33 C13	4.776716  -1.170775  0.04432 C.3	1 RES1 0.0
34 C14	3.889941  -1.276473  -1.0715 C.3	1 RES1 0.0
35 C15	3.02637  -0.150564  -1.238592 C.3	1 RES1 0.0
36 N2	2.14  0.0  0.0 N.3	1 RES1 0.0
37 C16	3.028769  0.150564  1.238592 C.3	1 RES1 0.0
38 H15	0.793536  -3.854624  -0.118564 H	1 RES1 0.0
39 H16	0.709959  -5.33586  0.804487 H	1 RES1 0.0
40 H17	2.260303  -4.606835  0.460953 H	1 RES1 0.0
41 H18	0.110305  -3.406865  2.191884 H	1 RES1 0.0
42 H19	1.577073  -4.159075  2.7714 H	1 RES1 0.0
43 H20	4.574362  -0.903073  2.197205 H	1 RES1 0.0
44 H21	5.387694  -0.2994  -0.066636 H	1 RES1 0.0
45 H22	5.399701  -2.03959  0.088485 H	1 RES1 0.0
46 H23	3.261643  -2.122788  -0.8874 H	1 RES1 0.0
47 H24	4.47786  -1.383743  -1.959049 H	1 RES1 0.0
48 H25	2.411442  -0.297396  -2.101844 H	1 RES1 0.0
49 H26	3.61437  0.734234  -1.36622 H	1 RES1 0.0
50 H27	2.418956  0.207681  2.115955 H	1 RES1 0.0
51 H28	3.610469  1.044825  1.156004 H	1 RES1 0.0
52 C17	-4.351492  -1.232466  0.989805 C.3	1 RES1 0.0
53 C18	-3.457632  -1.138142  2.215577 C.3	1 RES1 0.0
54 O5	-2.242998  -1.831562  1.970152 O.3	1 RES1 0.0
55 C19	-2.265972  -3.218912  1.668275 C.2	1 RES1 0.0
56 O6	-3.37363  -3.839981  1.61775 O.2	1 RES1 0.0
57 C20	-0.9658  -3.961164  1.405566 C.3	1 RES1 0.0
58 C21	-1.164832  -4.776716  0.125881 C.3	1 RES1 0.0
59 C22	-1.348107  -3.889941  -0.979847 C.3	1 RES1 0.0
60 C23	-0.236597  -3.02637  -1.225072 C.3	1 RES1 0.0
61 N3	0.0  -2.14  0.0 N.3	1 RES1 0.0
62 C24	0.236597  -3.028769  1.225072 C.3	1 RES1 0.0
63 H29	-3.853505  -0.793536  0.15061 H	1 RES1 0.0
64 H30	-5.266744  -0.709959  1.174738 H	1 RES1 0.0
65 H31	-4.563459  -2.260303  0.781187 H	1 RES1 0.0
66 H32	-3.245668  -0.110305  2.424196 H	1 RES1 0.0
67 H33	-3.955621  -1.577073  3.054772 H	1 RES1 0.0
68 H34	-0.747603  -4.574362  2.254848 H	1 RES1 0.0
69 H35	-0.303319  -5.387694  -0.045588 H	1 RES1 0.0
70 H36	-2.028449  -5.399701  0.230544 H	1 RES1 0.0
71 H37	-2.179519  -3.261643  -0.73716 H	1 RES1 0.0
72 H38	-1.517029  -4.47786  -1.857752 H	1 RES1 0.0
73 H39	-0.443289  -2.411442  -2.075978 H	1 RES1 0.0
74 H40	0.637143  -3.61437  -1.414109 H	1 RES1 0.0
75 H41	0.354776  -2.418956  2.096314 H	1 RES1 0.0
76 H42	1.122919  -3.610469  1.080304 H	1 RES1 0.0
77 C25	-1.232466  2.916848  -3.377454 C.3	1 RES1 0.0
78 C26	-1.138142  3.579499  -2.012758 C.3	1 RES1 0.0
79 O7	-1.831562  2.792565  -1.05552 O.3	1 RES1 0.0
80 C27	-3.218912  2.536809  -1.217527 C.3	1 RES1 0.0
81 O8	-3.839981  3.012212  -2.219251 O.3	1 RES1 0.0
82 C28	-3.961164  1.694457  -0.192877 C.3	1 RES1 0.0
83 C29	-4.776716  0.658002  -0.969388 C.3	1 RES1 0.0
84 C30	-3.889941  -0.232256  -1.650319 C.3	1 RES1 0.0
85 C31	-3.02637  -0.970599  -0.784039 C.3	1 RES1 0.0
86 N4	-2.14  0.0  0.0 N.3	1 RES1 0.0
87 C32	-3.028769  0.970599  0.784039 C.3	1 RES1 0.0
88 H43	-0.793536  1.942092  -3.331736 H	1 RES1 0.0
89 H44	-0.709959  3.509819  -4.098753 H	1 RES1 0.0
90 H45	-2.260303  2.832161  -3.66255 H	1 RES1 0.0
91 H46	-0.110305  3.664186  -1.727664 H	1 RES1 0.0
92 H47	-1.577073  4.554255  -2.058478 H	1 RES1 0.0
93 H48	-4.574362  2.341891  0.398492 H	1 RES1 0.0
94 H49	-5.387694  0.102148  -0.289217 H	1 RES1 0.0
95 H50	-5.399701  1.155857  -1.682781 H	1 RES1 0.0
96 H51	-3.261643  0.372348  -2.270476 H	1 RES1 0.0
97 H52	-4.47786  -0.928096  -2.211619 H	1 RES1 0.0
98 H53	-2.411442  -1.624869  -1.366013 H	1 RES1 0.0
99 H54	-3.61437  -1.547705  -0.10132 H	1 RES1 0.0
100 H55	-2.418956  1.684378  1.297409 H	1 RES1 0.0
101 H56	-3.610469  0.426674  1.498651 H	1 RES1 0.0
102 C33	2.41841  3.750532  1.232466 C.3	1 RES1 0.0
103 C34	3.264542  2.49134  1.138142 C.3	1 RES1 0.0
104 O9	2.618488  1.433897  1.831562 O.2	1 RES1 0.0
105 C35	2.342674  1.558733  3.218912 C.2	1 RES1 0.0
106 O10	2.674038  2.616873  3.839981 O.2	1 RES1 0.0
107 C36	1.651123  0.426823  3.961164 C.3	1 RES1 0.0
108 C37	0.516685  1.05153  4.776716 C.3	1 RES1 0.0
109 C38	-0.459675  1.601934  3.889941 C.3	1 RES1 0.0
110 C39	-1.07027  0.641327  3.02637 C.3	1 RES1 0.0
111 N5	0.0  0.0  2.14 N.3	1 RES1 0.0
112 C40	1.07027  -0.641327  3.028769 C.3	1 RES1 0.0
113 H57	1.459503  3.569598  0.793536 H	1 RES1 0.0
114 H58	2.905225  4.547337  0.709959 H	1 RES1 0.0
115 H59	2.29487  4.021067  2.260303 H	1 RES1 0.0
116 H60	3.388082  2.220806  0.110305 H	1 RES1 0.0
117 H61	4.223448  2.672274  1.577073 H	1 RES1 0.0
118 H62	2.37456  -0.068686  4.574362 H	1 RES1 0.0
119 H63	0.060902  0.300619  5.387694 H	1 RES1 0.0
120 H64	0.910411  1.827268  5.399701 H	1 RES1 0.0
121 H65	0.052735  2.300201  3.261643 H	1 RES1 0.0
122 H66	-1.226861  2.06093  4.47786 H	1 RES1 0.0
123 H67	-1.799168  1.126581  2.411442 H	1 RES1 0.0
124 H68	-1.546744  -0.115064  3.61437 H	1 RES1 0.0
125 H69	1.84855  -1.050362  2.418956 H	1 RES1 0.0
126 H70	0.631093  -1.424684  3.610469 H	1 RES1 0.0
127 H71	-0.0  0.0  -1.58 H	2 RES2 0.0
@<TRIPOS>BOND
1 1 11 1
1 1 36 1
1 1 61 1
1 1 86 1
1 1 111 1
1 2 3 1
1 2 13 1
1 2 14 1
1 2 15 1
1 2 80 1
1 2 82 1
1 2 83 1
1 2 84 1
1 2 95 1
1 3 4 1
1 3 16 1
1 3 17 1
1 3 96 1
1 4 5 1
1 4 77 1
1 4 79 1
1 5 6 1
1 5 7 1
1 5 77 1
1 5 78 1
1 5 79 1
1 5 80 1
1 6 80 1
1 6 81 1
1 7 8 1
1 7 12 1
1 7 18 1
1 7 78 1
1 7 79 1
1 7 91 1
1 7 92 1
1 8 9 1
1 8 19 1
1 8 20 1
1 9 10 1
1 9 21 1
1 9 22 1
1 10 11 1
1 10 23 1
1 10 24 1
1 11 12 1
1 12 25 1
1 12 26 1
1 12 91 1
1 13 82 1
1 13 83 1
1 14 83 1
1 14 95 1
1 15 80 1
1 15 81 1
1 27 28 1
1 27 38 1
1 27 39 1
1 27 40 1
1 27 76 1
1 28 29 1
1 28 41 1
1 28 42 1
1 28 62 1
1 28 76 1
1 29 30 1
1 30 31 2
1 30 32 1
1 32 33 1
1 32 37 1
1 32 43 1
1 33 34 1
1 33 44 1
1 33 45 1
1 34 35 1
1 34 46 1
1 34 47 1
1 35 36 1
1 35 48 1
1 35 49 1
1 36 37 1
1 37 50 1
1 37 51 1
1 37 104 1
1 41 62 1
1 51 104 1
1 52 53 1
1 52 63 1
1 52 64 1
1 52 65 1
1 53 54 1
1 53 66 1
1 53 67 1
1 54 55 1
1 55 56 2
1 55 57 1
1 57 58 1
1 57 62 1
1 57 68 1
1 58 59 1
1 58 69 1
1 58 70 1
1 59 60 1
1 59 71 1
1 59 72 1
1 60 61 1
1 60 73 1
1 60 74 1
1 61 62 1
1 62 75 1
1 62 76 1
1 63 85 1
1 63 99 1
1 77 78 1
1 77 88 1
1 77 89 1
1 77 90 1
1 78 79 1
1 78 91 1
1 78 92 1
1 79 80 1
1 80 81 1
1 80 82 1
1 82 83 1
1 82 87 1
1 82 93 1
1 83 84 1
1 83 94 1
1 83 95 1
1 84 85 1
1 84 96 1
1 84 97 1
1 85 86 1
1 85 98 1
1 85 99 1
1 86 87 1
1 87 100 1
1 87 101 1
1 102 103 1
1 102 113 1
1 102 114 1
1 102 115 1
1 103 104 1
1 103 116 1
1 103 117 1
1 104 105 1
1 105 106 2
1 105 107 1
1 107 108 1
1 107 112 1
1 107 118 1
1 108 109 1
1 108 119 1
1 108 120 1
1 109 110 1
1 109 121 1
1 109 122 1
1 110 111 1
1 110 123 1
1 110 124 1
1 111 112 1
1 112 125 1
1 112 126 1
@<TRIPOS>SUBSTRUCTURE
1 RES1 126
2 RES2 1

