@<TRIPOS>MOLECULE
/Users/abdulahmed/Documents/GitHub/HER-metal-complex-ligands/Runs//o_phenylene_diamine/o_phenylene_diamine
43	48	1
SMALL
PartialCharges
****
Generated from molSimplify

@<TRIPOS>ATOM
1 Ni1	0.0  0.0  0.0 Ni	1 RES1 0.0
2 N1	0.0  2.14  0.0 N.pl3	1 RES1 0.0
3 C1	1.295945  2.504584  -0.019804 C.ar	1 RES1 0.0
4 C2	1.685203  3.855166  -0.040553 C.ar	1 RES1 0.0
5 C3	3.030283  4.228431  -0.061047 C.ar	1 RES1 0.0
6 C4	4.012061  3.246653  -0.061047 C.ar	1 RES1 0.0
7 C5	3.638796  1.901573  -0.040553 C.ar	1 RES1 0.0
8 C6	2.288214  1.512315  -0.019804 C.ar	1 RES1 0.0
9 N2	1.92363  0.21637  0.0 N.pl3	1 RES1 0.0
10 H1	-0.56435  2.991369  -0.003424 H	1 RES1 0.0
11 H2	0.916556  4.619528  -0.040502 H	1 RES1 0.0
12 H3	3.295354  5.276121  -0.076703 H	1 RES1 0.0
13 H4	5.059751  3.511725  -0.076703 H	1 RES1 0.0
14 H5	4.403158  1.132927  -0.040503 H	1 RES1 0.0
15 H6	2.774999  -0.347979  -0.003424 H	1 RES1 0.0
16 N3	0.0  -2.14  0.0 N.pl3	1 RES1 0.0
17 C7	-0.019804  -2.504584  1.295945 C.ar	1 RES1 0.0
18 C8	-0.040553  -3.855166  1.685203 C.ar	1 RES1 0.0
19 C9	-0.061047  -4.228431  3.030283 C.ar	1 RES1 0.0
20 C10	-0.061047  -3.246653  4.012061 C.ar	1 RES1 0.0
21 C11	-0.040553  -1.901573  3.638796 C.ar	1 RES1 0.0
22 C12	-0.019804  -1.512315  2.288214 C.ar	1 RES1 0.0
23 N4	-0.0  -0.21637  1.92363 N.pl3	1 RES1 0.0
24 H7	-0.003424  -2.991369  -0.56435 H	1 RES1 0.0
25 H8	-0.040502  -4.619528  0.916556 H	1 RES1 0.0
26 H9	-0.076703  -5.276121  3.295354 H	1 RES1 0.0
27 H10	-0.076703  -3.511725  5.059751 H	1 RES1 0.0
28 H11	-0.040503  -1.132927  4.403158 H	1 RES1 0.0
29 H12	-0.003424  0.347979  2.774999 H	1 RES1 0.0
30 N5	-2.14  0.0  0.0 N.pl3	1 RES1 0.0
31 C13	-2.504584  -0.019804  -1.295945 C.ar	1 RES1 0.0
32 C14	-3.855166  -0.040553  -1.685203 C.ar	1 RES1 0.0
33 C15	-4.228431  -0.061047  -3.030283 C.ar	1 RES1 0.0
34 C16	-3.246653  -0.061047  -4.012061 C.ar	1 RES1 0.0
35 C17	-1.901573  -0.040553  -3.638796 C.ar	1 RES1 0.0
36 C18	-1.512315  -0.019804  -2.288214 C.ar	1 RES1 0.0
37 N6	-0.21637  0.0  -1.92363 N.pl3	1 RES1 0.0
38 H13	-2.991369  -0.003424  0.56435 H	1 RES1 0.0
39 H14	-4.619528  -0.040502  -0.916556 H	1 RES1 0.0
40 H15	-5.276121  -0.076703  -3.295354 H	1 RES1 0.0
41 H16	-3.511725  -0.076703  -5.059751 H	1 RES1 0.0
42 H17	-1.132927  -0.040503  -4.403158 H	1 RES1 0.0
43 H18	0.347979  -0.003424  -2.774999 H	1 RES1 0.0
@<TRIPOS>BOND
1 1 2 1
1 1 9 1
1 1 16 1
1 1 23 1
1 1 30 1
1 1 37 1
1 2 3 1
1 2 10 1
1 3 4 2
1 3 8 1
1 4 5 1
1 4 11 1
1 5 6 2
1 5 12 1
1 6 7 1
1 6 13 1
1 7 8 2
1 7 14 1
1 8 9 1
1 9 15 1
1 16 17 1
1 16 24 1
1 17 18 2
1 17 22 1
1 18 19 1
1 18 25 1
1 19 20 2
1 19 26 1
1 20 21 1
1 20 27 1
1 21 22 2
1 21 28 1
1 22 23 1
1 23 29 1
1 30 31 1
1 30 38 1
1 31 32 2
1 31 36 1
1 32 33 1
1 32 39 1
1 33 34 2
1 33 40 1
1 34 35 1
1 34 41 1
1 35 36 2
1 35 42 1
1 36 37 1
1 37 43 1
@<TRIPOS>SUBSTRUCTURE
1 RES1 43

