@<TRIPOS>MOLECULE
/Users/abdulahmed/Documents/GitHub/HER-metal-complex-ligands/Runs//2_mercaptonicotinic_acid_hydride/2_mercaptonicotinic_acid_hydride
29	32	3
SMALL
PartialCharges
****
Generated from molSimplify

@<TRIPOS>ATOM
1 Ni1	0.0  0.0  0.0 Ni	1 RES1 0.0
2 O1	4.356905  3.354906  0.988266 O.co2	1 RES1 0.0
3 C1	3.748507  3.021368  -0.089692 C.2	1 RES1 0.0
4 O2	4.317889  2.932009  -1.23097 O.co2	1 RES1 0.0
5 C2	2.245578  3.055129  -0.051807 C.2	1 RES1 0.0
6 C3	1.675078  4.347556  -0.027885 C.2	1 RES1 0.0
7 C4	0.299895  4.527684  2e-05 C.2	1 RES1 0.0
8 C5	-0.484539  3.395384  0.010069 C.2	1 RES1 0.0
9 N1	0.0  2.14  0.0 N.pl3	1 RES1 0.0
10 C6	1.357934  1.972785  -0.028527 C.3	1 RES1 0.0
11 S1	1.836555  0.303445  0.0 S.3	1 RES1 0.0
12 H1	2.343746  5.204628  -0.031053 H	1 RES1 0.0
13 H2	-0.135226  5.516331  0.014202 H	1 RES1 0.0
14 H3	-1.565148  3.459823  0.029117 H	1 RES1 0.0
15 O3	0.988266  -3.354906  4.356905 O.co2	1 RES1 0.0
16 C7	-0.089692  -3.021368  3.748507 C.2	1 RES1 0.0
17 O4	-1.23097  -2.932009  4.317889 O.co2	1 RES1 0.0
18 C8	-0.051807  -3.055129  2.245578 C.2	1 RES1 0.0
19 C9	-0.027885  -4.347556  1.675078 C.2	1 RES1 0.0
20 C10	2e-05  -4.527684  0.299895 C.2	1 RES1 0.0
21 C11	0.010069  -3.395384  -0.484539 C.2	1 RES1 0.0
22 N2	0.0  -2.14  0.0 N.pl3	1 RES1 0.0
23 C12	-0.028527  -1.972785  1.357934 C.3	1 RES1 0.0
24 S2	-0.0  -0.303445  1.836555 S.3	1 RES1 0.0
25 H4	-0.031053  -5.204628  2.343746 H	1 RES1 0.0
26 H5	0.014202  -5.516331  -0.135226 H	1 RES1 0.0
27 H6	0.029117  -3.459823  -1.565148 H	1 RES1 0.0
28 H7	-1.58  0.0  0.0 H	2 RES2 0.0
29 H8	0.0  0.0  -1.58 H	3 RES3 0.0
@<TRIPOS>BOND
1 1 9 1
1 1 10 1
1 1 11 1
1 1 22 1
1 1 23 1
1 1 24 1
1 2 3 2
1 3 4 1
1 3 5 1
1 5 6 2
1 5 10 1
1 6 7 1
1 6 12 1
1 7 8 2
1 7 13 1
1 8 9 1
1 8 14 1
1 9 10 1
1 10 11 1
1 15 16 2
1 16 17 1
1 16 18 1
1 18 19 2
1 18 23 1
1 19 20 1
1 19 25 1
1 20 21 2
1 20 26 1
1 21 22 1
1 21 27 1
1 22 23 1
1 23 24 1
@<TRIPOS>SUBSTRUCTURE
1 RES1 27
2 RES2 1
3 RES3 1

