@<TRIPOS>MOLECULE
/Users/abdulahmed/Documents/GitHub/HER-metal-complex-ligands/Runs//2_amino_4_trifluoromethylbenzenethiolhydrochloride_hydride/2_amino_4_trifluoromethylbenzenethiolhydrochloride_hydride
35	36	3
SMALL
PartialCharges
****
Generated from molSimplify

@<TRIPOS>ATOM
1 Ni1	0.0  0.0  0.0 Ni	1 RES1 0.0
2 N1	0.0  2.14  0.0 N.pl3	1 RES1 0.0
3 C1	1.293796  2.534427  0.005084 C.ar	1 RES1 0.0
4 C2	1.588886  3.911469  0.010119 C.ar	1 RES1 0.0
5 C3	2.904085  4.406329  0.01557 C.ar	1 RES1 0.0
6 C4	3.966175  3.499376  0.016036 C.ar	1 RES1 0.0
7 C5	3.709795  2.129575  0.011139 C.ar	1 RES1 0.0
8 C6	2.393532  1.644584  0.005716 C.ar	1 RES1 0.0
9 S1	2.220342  -0.080342  -0.0 S.3	1 RES1 0.0
10 C7	3.139248  5.881935  0.02072 C.3	1 RES1 0.0
11 F1	2.612578  6.524558  1.107771 F	1 RES1 0.0
12 F2	2.619163  6.531093  -1.065618 F	1 RES1 0.0
13 F3	4.466593  6.231014  0.025791 F	1 RES1 0.0
14 H1	-0.595979  2.970305  0.000706 H	1 RES1 0.0
15 H2	0.759108  4.615209  0.00974 H	1 RES1 0.0
16 H3	4.994851  3.840593  0.020161 H	1 RES1 0.0
17 H4	4.540846  1.430906  0.011537 H	1 RES1 0.0
18 N2	0.0  -2.14  0.0 N.pl3	1 RES1 0.0
19 C8	0.005084  -2.534427  1.293796 C.ar	1 RES1 0.0
20 C9	0.010119  -3.911469  1.588886 C.ar	1 RES1 0.0
21 C10	0.01557  -4.406329  2.904085 C.ar	1 RES1 0.0
22 C11	0.016036  -3.499376  3.966175 C.ar	1 RES1 0.0
23 C12	0.011139  -2.129575  3.709795 C.ar	1 RES1 0.0
24 C13	0.005716  -1.644584  2.393532 C.ar	1 RES1 0.0
25 S2	0.0  0.080342  2.220342 S.3	1 RES1 0.0
26 C14	0.02072  -5.881935  3.139248 C.3	1 RES1 0.0
27 F4	1.107771  -6.524558  2.612578 F	1 RES1 0.0
28 F5	-1.065618  -6.531093  2.619163 F	1 RES1 0.0
29 F6	0.025791  -6.231014  4.466593 F	1 RES1 0.0
30 H5	0.000706  -2.970305  -0.595979 H	1 RES1 0.0
31 H6	0.00974  -4.615209  0.759108 H	1 RES1 0.0
32 H7	0.020161  -3.840593  4.994851 H	1 RES1 0.0
33 H8	0.011537  -1.430906  4.540846 H	1 RES1 0.0
34 H9	-1.58  0.0  0.0 H	2 RES2 0.0
35 H10	0.0  0.0  -1.58 H	3 RES3 0.0
@<TRIPOS>BOND
1 1 2 1
1 1 9 1
1 1 18 1
1 1 25 1
1 2 3 1
1 2 14 1
1 3 4 2
1 3 8 1
1 4 5 1
1 4 15 1
1 5 6 2
1 5 10 1
1 6 7 1
1 6 16 1
1 7 8 2
1 7 17 1
1 8 9 1
1 10 11 1
1 10 12 1
1 10 13 1
1 18 19 1
1 18 30 1
1 19 20 2
1 19 24 1
1 20 21 1
1 20 31 1
1 21 22 2
1 21 26 1
1 22 23 1
1 22 32 1
1 23 24 2
1 23 33 1
1 24 25 1
1 26 27 1
1 26 28 1
1 26 29 1
@<TRIPOS>SUBSTRUCTURE
1 RES1 33
2 RES2 1
3 RES3 1

