@<TRIPOS>MOLECULE
/Users/abdulahmed/Documents/GitHub/HER-metal-complex-ligands/Runs//6_mercaptonicotinonitrile_hydride/6_mercaptonicotinonitrile_hydride
27	30	3
SMALL
PartialCharges
****
Generated from molSimplify

@<TRIPOS>ATOM
1 Ni1	0.0  0.0  0.0 Ni	1 RES1 0.0
2 N1	-0.575807  6.921385  -0.012007 N.1	1 RES1 0.0
3 C1	-0.140065  5.844268  -0.010163 C.1	1 RES1 0.0
4 C2	0.400852  4.524255  -0.007924 C.2	1 RES1 0.0
5 C3	-0.437162  3.418505  -0.002405 C.2	1 RES1 0.0
6 N2	0.0  2.14  0.0 N.pl3	1 RES1 0.0
7 C4	1.319168  1.964976  -0.003238 C.3	1 RES1 0.0
8 S1	1.787758  0.352242  0.0 S.3	1 RES1 0.0
9 C5	2.248218  2.99274  -0.008787 C.2	1 RES1 0.0
10 C6	1.77633  4.303325  -0.011182 C.2	1 RES1 0.0
11 H1	-1.51808  3.51807  0.000366 H	1 RES1 0.0
12 H2	3.31197  2.7814  -0.011197 H	1 RES1 0.0
13 H3	2.482159  5.127252  -0.015524 H	1 RES1 0.0
14 N3	-0.012007  -6.921385  -0.575807 N.1	1 RES1 0.0
15 C7	-0.010163  -5.844268  -0.140065 C.1	1 RES1 0.0
16 C8	-0.007924  -4.524255  0.400852 C.2	1 RES1 0.0
17 C9	-0.002405  -3.418505  -0.437162 C.2	1 RES1 0.0
18 N4	0.0  -2.14  0.0 N.pl3	1 RES1 0.0
19 C10	-0.003238  -1.964976  1.319168 C.3	1 RES1 0.0
20 S2	0.0  -0.352242  1.787758 S.3	1 RES1 0.0
21 C11	-0.008787  -2.99274  2.248218 C.2	1 RES1 0.0
22 C12	-0.011182  -4.303325  1.77633 C.2	1 RES1 0.0
23 H4	0.000366  -3.51807  -1.51808 H	1 RES1 0.0
24 H5	-0.011197  -2.7814  3.31197 H	1 RES1 0.0
25 H6	-0.015524  -5.127252  2.482159 H	1 RES1 0.0
26 H7	-1.58  0.0  0.0 H	2 RES2 0.0
27 H8	0.0  0.0  -1.58 H	3 RES3 0.0
@<TRIPOS>BOND
1 1 6 1
1 1 7 1
1 1 8 1
1 1 18 1
1 1 19 1
1 1 20 1
1 2 3 3
1 3 4 1
1 4 5 2
1 4 10 1
1 5 6 1
1 5 11 1
1 6 7 1
1 7 8 1
1 7 9 1
1 9 10 2
1 9 12 1
1 10 13 1
1 14 15 3
1 15 16 1
1 16 17 2
1 16 22 1
1 17 18 1
1 17 23 1
1 18 19 1
1 19 20 1
1 19 21 1
1 21 22 2
1 21 24 1
1 22 25 1
@<TRIPOS>SUBSTRUCTURE
1 RES1 25
2 RES2 1
3 RES3 1

