@<TRIPOS>MOLECULE
/Users/abdulahmed/Documents/GitHub/HER-metal-complex-ligands/Runs//ni_oct_2_ophenylenediamine_3_s_1/ni_oct_2_ophenylenediamine_3_s_1_conf_1
49	54	1
SMALL
PartialCharges
****
Generated from molSimplify

@<TRIPOS>ATOM
1 Ni1	0.0  0.0  0.0 Ni	1 RES1 0.0
2 N1	-0.0  2.14  -0.0 N.pl3	1 RES1 0.0
3 C1	1.351935  2.513537  -0.009707 C.ar	1 RES1 0.0
4 C2	1.709473  3.844038  -0.253251 C.ar	1 RES1 0.0
5 C3	3.046961  4.199522  -0.433389 C.ar	1 RES1 0.0
6 C4	4.031044  3.215425  -0.434131 C.ar	1 RES1 0.0
7 C5	3.675685  1.877823  -0.254644 C.ar	1 RES1 0.0
8 C6	2.345381  1.520183  -0.010185 C.ar	1 RES1 0.0
9 N2	1.971847  0.168153  -0.0 N.pl3	1 RES1 0.0
10 H1	-0.624618  2.889084  0.27679 H	1 RES1 0.0
11 H2	-0.200359  1.2767  0.480161 H	1 RES1 0.0
12 H3	0.944651  4.612535  -0.318053 H	1 RES1 0.0
13 H4	3.314031  5.237895  -0.609488 H	1 RES1 0.0
14 H5	5.069301  3.482617  -0.610735 H	1 RES1 0.0
15 H6	4.444183  1.113075  -0.320239 H	1 RES1 0.0
16 H7	2.722103  -0.456233  0.274226 H	1 RES1 0.0
17 H8	1.11107  -0.031945  0.484871 H	1 RES1 0.0
18 N3	0.0  -2.14  0.0 N.pl3	1 RES1 0.0
19 C7	-0.009707  -2.513537  1.351935 C.ar	1 RES1 0.0
20 C8	-0.253251  -3.844038  1.709473 C.ar	1 RES1 0.0
21 C9	-0.433389  -4.199522  3.046961 C.ar	1 RES1 0.0
22 C10	-0.434131  -3.215425  4.031044 C.ar	1 RES1 0.0
23 C11	-0.254644  -1.877823  3.675685 C.ar	1 RES1 0.0
24 C12	-0.010185  -1.520183  2.345381 C.ar	1 RES1 0.0
25 N4	0.0  -0.168153  1.971847 N.pl3	1 RES1 0.0
26 H9	0.27679  -2.889084  -0.624618 H	1 RES1 0.0
27 H10	0.480161  -1.2767  -0.200359 H	1 RES1 0.0
28 H11	-0.318053  -4.612535  0.944651 H	1 RES1 0.0
29 H12	-0.609488  -5.237895  3.314031 H	1 RES1 0.0
30 H13	-0.610735  -3.482617  5.069301 H	1 RES1 0.0
31 H14	-0.320239  -1.113075  4.444183 H	1 RES1 0.0
32 H15	0.274226  0.456233  2.722103 H	1 RES1 0.0
33 H16	0.484871  0.031945  1.11107 H	1 RES1 0.0
34 N5	-2.14  0.0  0.0 N.pl3	1 RES1 0.0
35 C13	-2.513537  -0.009707  -1.351935 C.ar	1 RES1 0.0
36 C14	-3.844038  -0.253251  -1.709473 C.ar	1 RES1 0.0
37 C15	-4.199522  -0.433389  -3.046961 C.ar	1 RES1 0.0
38 C16	-3.215425  -0.434131  -4.031044 C.ar	1 RES1 0.0
39 C17	-1.877823  -0.254644  -3.675685 C.ar	1 RES1 0.0
40 C18	-1.520183  -0.010185  -2.345381 C.ar	1 RES1 0.0
41 N6	-0.168153  -0.0  -1.971847 N.pl3	1 RES1 0.0
42 H17	-2.889084  0.27679  0.624618 H	1 RES1 0.0
43 H18	-1.2767  0.480161  0.200359 H	1 RES1 0.0
44 H19	-4.612535  -0.318053  -0.944651 H	1 RES1 0.0
45 H20	-5.237895  -0.609488  -3.314031 H	1 RES1 0.0
46 H21	-3.482617  -0.610735  -5.069301 H	1 RES1 0.0
47 H22	-1.113075  -0.320239  -4.444183 H	1 RES1 0.0
48 H23	0.456233  0.274226  -2.722103 H	1 RES1 0.0
49 H24	0.031945  0.484871  -1.11107 H	1 RES1 0.0
@<TRIPOS>BOND
1 1 2 1
1 1 9 1
1 1 18 1
1 1 25 1
1 1 34 1
1 1 41 1
1 2 3 1
1 2 10 1
1 2 11 1
1 3 4 2
1 3 8 1
1 4 5 1
1 4 12 1
1 5 6 2
1 5 13 1
1 6 7 1
1 6 14 1
1 7 8 2
1 7 15 1
1 8 9 1
1 9 16 1
1 9 17 1
1 18 19 1
1 18 26 1
1 18 27 1
1 19 20 2
1 19 24 1
1 20 21 1
1 20 28 1
1 21 22 2
1 21 29 1
1 22 23 1
1 22 30 1
1 23 24 2
1 23 31 1
1 24 25 1
1 25 32 1
1 25 33 1
1 34 35 1
1 34 42 1
1 34 43 1
1 35 36 2
1 35 40 1
1 36 37 1
1 36 44 1
1 37 38 2
1 37 45 1
1 38 39 1
1 38 46 1
1 39 40 2
1 39 47 1
1 40 41 1
1 41 48 1
1 41 49 1
@<TRIPOS>SUBSTRUCTURE
1 RES1 49

