@<TRIPOS>MOLECULE
/Users/abdulahmed/Documents/GitHub/HER-metal-complex-ligands/Runs//ni_oct_2_ophenylenediamine_2_hydride_2_s_1/ni_oct_2_ophenylenediamine_2_hydride_2_s_1_conf_1
35	36	3
SMALL
PartialCharges
****
Generated from molSimplify

@<TRIPOS>ATOM
1 Ni1	0.0  0.0  0.0 Ni	1 RES1 0.0
2 N1	0.0  2.14  0.0 N.pl3	1 RES1 0.0
3 C1	1.347583  2.51484  -0.028866 C.ar	1 RES1 0.0
4 C2	1.703281  3.859392  0.111604 C.ar	1 RES1 0.0
5 C3	3.038941  4.224281  0.287685 C.ar	1 RES1 0.0
6 C4	4.02115  3.240969  0.377395 C.ar	1 RES1 0.0
7 C5	3.670216  1.894073  0.272594 C.ar	1 RES1 0.0
8 C6	2.345207  1.525593  0.022045 C.ar	1 RES1 0.0
9 N2	1.971847  0.168153  -0.0 N.pl3	1 RES1 0.0
10 H1	-0.191083  1.171504  -0.208194 H	1 RES1 0.0
11 H2	-0.640468  2.801991  -0.419832 H	1 RES1 0.0
12 H3	0.937041  4.629153  0.117323 H	1 RES1 0.0
13 H4	3.305398  5.272204  0.395429 H	1 RES1 0.0
14 H5	5.056545  3.520145  0.552843 H	1 RES1 0.0
15 H6	4.440105  1.136123  0.381735 H	1 RES1 0.0
16 H7	1.226262  -0.012816  -0.66009 H	1 RES1 0.0
17 H8	2.759668  -0.45016  -0.164043 H	1 RES1 0.0
18 N3	-0.0  -2.14  0.0 N.pl3	1 RES1 0.0
19 C7	-0.028866  -2.51484  1.347583 C.ar	1 RES1 0.0
20 C8	0.111604  -3.859392  1.703281 C.ar	1 RES1 0.0
21 C9	0.287685  -4.224281  3.038941 C.ar	1 RES1 0.0
22 C10	0.377395  -3.240969  4.02115 C.ar	1 RES1 0.0
23 C11	0.272594  -1.894073  3.670216 C.ar	1 RES1 0.0
24 C12	0.022045  -1.525593  2.345207 C.ar	1 RES1 0.0
25 N4	-0.0  -0.168153  1.971847 N.pl3	1 RES1 0.0
26 H9	-0.208194  -1.171504  -0.191083 H	1 RES1 0.0
27 H10	-0.419832  -2.801991  -0.640468 H	1 RES1 0.0
28 H11	0.117323  -4.629153  0.937041 H	1 RES1 0.0
29 H12	0.395429  -5.272204  3.305398 H	1 RES1 0.0
30 H13	0.552843  -3.520145  5.056545 H	1 RES1 0.0
31 H14	0.381735  -1.136123  4.440105 H	1 RES1 0.0
32 H15	-0.66009  0.012816  1.226262 H	1 RES1 0.0
33 H16	-0.164043  0.45016  2.759668 H	1 RES1 0.0
34 H17	-1.58  0.0  0.0 H	2 RES2 0.0
35 H18	0.0  0.0  -1.58 H	3 RES3 0.0
@<TRIPOS>BOND
1 1 2 1
1 1 9 1
1 1 18 1
1 1 25 1
1 2 3 1
1 2 10 1
1 2 11 1
1 3 4 2
1 3 8 1
1 4 5 1
1 4 12 1
1 5 6 2
1 5 13 1
1 6 7 1
1 6 14 1
1 7 8 2
1 7 15 1
1 8 9 1
1 9 16 1
1 9 17 1
1 18 19 1
1 18 26 1
1 18 27 1
1 19 20 2
1 19 24 1
1 20 21 1
1 20 28 1
1 21 22 2
1 21 29 1
1 22 23 1
1 22 30 1
1 23 24 2
1 23 31 1
1 24 25 1
1 25 32 1
1 25 33 1
@<TRIPOS>SUBSTRUCTURE
1 RES1 33
2 RES2 1
3 RES3 1

