@<TRIPOS>MOLECULE
/Users/abdulahmed/Documents/GitHub/HER-metal-complex-ligands/Runs//ni_oct_2_2aminobenzethiol_config1_H2/ni_oct_2_2aminobenzethiol_config1_H2
48	49	3
SMALL
PartialCharges
****
Generated from molSimplify

@<TRIPOS>ATOM
1 Ni1	0.0  0.0  0.0 Ni	1 RES1 0.0
2 N1	0.0  2.14  0.0 N.pl3	1 RES1 0.0
3 C1	1.326737  2.618527  -0.002985 C.ar	1 RES1 0.0
4 C2	1.560806  3.987083  -0.178668 C.ar	1 RES1 0.0
5 C3	2.863095  4.480977  -0.286699 C.ar	1 RES1 0.0
6 C4	3.945839  3.60562  -0.260762 C.ar	1 RES1 0.0
7 C5	3.726037  2.232456  -0.155302 C.ar	1 RES1 0.0
8 C6	2.421773  1.734378  -0.057091 C.ar	1 RES1 0.0
9 S1	2.175164  -0.035164  0.0 S.3	1 RES1 0.0
10 H1	-0.069058  1.239397  0.470211 H	1 RES1 0.0
11 H2	-0.66479  2.811171  0.372557 H	1 RES1 0.0
12 H3	0.727252  4.682795  -0.228518 H	1 RES1 0.0
13 H4	3.029733  5.548882  -0.402174 H	1 RES1 0.0
14 H5	4.95945  3.988873  -0.345287 H	1 RES1 0.0
15 H6	4.575962  1.554434  -0.167535 H	1 RES1 0.0
16 H7	1.219102  -0.049557  -0.941741 H	1 RES1 0.0
17 S2	0.0  -2.23  0.0 S.3	1 RES1 0.0
18 C7	-1.210041  -3.545448  0.285479 C.ar	1 RES1 0.0
19 C8	-1.642842  -3.916545  1.588995 C.ar	1 RES1 0.0
20 C9	-2.182693  -5.196258  1.797438 C.ar	1 RES1 0.0
21 C10	-2.53657  -5.926665  0.781156 C.ar	1 RES1 0.0
22 C11	-2.389947  -5.434447  -0.522554 C.ar	1 RES1 0.0
23 C12	-1.580605  -4.295587  -0.753654 C.ar	1 RES1 0.0
24 N2	-1.155612  -3.94558  -2.116657 N.pl3	1 RES1 0.0
25 H8	1.210041  -2.781274  -0.285479 H	1 RES1 0.0
26 H9	-1.557853  -3.227158  2.402889 H	1 RES1 0.0
27 H10	-2.302882  -5.570422  2.792654 H	1 RES1 0.0
28 H11	-2.940181  -6.90468  0.940799 H	1 RES1 0.0
29 H12	-2.886599  -5.916258  -1.338701 H	1 RES1 0.0
30 H13	-1.443652  -4.524844  -2.905255 H	1 RES1 0.0
31 H14	-0.572679  -3.123455  -2.273816 H	1 RES1 0.0
32 S3	-2.23  0.0  0.0 S.3	1 RES1 0.0
33 C13	-3.545448  1.219267  0.243075 C.ar	1 RES1 0.0
34 C14	-3.916545  1.697297  1.530693 C.ar	1 RES1 0.0
35 C15	-5.196258  2.244093  1.720168 C.ar	1 RES1 0.0
36 C16	-5.926665  2.562287  0.692155 C.ar	1 RES1 0.0
37 C17	-5.434447  2.370255  -0.605644 C.ar	1 RES1 0.0
38 C18	-4.295587  1.55334  -0.808358 C.ar	1 RES1 0.0
39 N3	-3.94558  1.081038  -2.155698 N.pl3	1 RES1 0.0
40 H15	-2.781274  -1.219267  -0.243075 H	1 RES1 0.0
41 H16	-3.227158  1.640763  2.347057 H	1 RES1 0.0
42 H17	-5.570422  2.398941  2.710584 H	1 RES1 0.0
43 H18	-6.90468  2.971223  0.837615 H	1 RES1 0.0
44 H19	-5.916258  2.838121  -1.438626 H	1 RES1 0.0
45 H20	-4.524844  1.34138  -2.953868 H	1 RES1 0.0
46 H21	-3.123455  0.492975  -2.292417 H	1 RES1 0.0
47 H22	0.0  0.0  1.58 H	2 RES2 0.0
48 H23	0.0  0.0  -1.58 H	3 RES3 0.0
@<TRIPOS>BOND
1 1 2 1
1 1 9 1
1 1 17 1
1 1 32 2
1 2 3 1
1 2 10 1
1 2 11 1
1 3 4 2
1 3 8 1
1 4 5 1
1 4 12 1
1 5 6 2
1 5 13 1
1 6 7 1
1 6 14 1
1 7 8 2
1 7 15 1
1 8 9 1
1 9 16 1
1 17 18 1
1 17 25 1
1 18 19 2
1 18 23 1
1 19 20 1
1 19 26 1
1 20 21 2
1 20 27 1
1 21 22 1
1 21 28 1
1 22 23 2
1 22 29 1
1 23 24 1
1 24 30 1
1 24 31 1
1 32 33 1
1 32 40 1
1 33 34 2
1 33 38 1
1 34 35 1
1 34 41 1
1 35 36 2
1 35 42 1
1 36 37 1
1 36 43 1
1 37 38 2
1 37 44 1
1 38 39 1
1 39 45 1
1 39 46 1
@<TRIPOS>SUBSTRUCTURE
1 RES1 46
2 RES2 1
3 RES3 1

