@<TRIPOS>MOLECULE
/home/jovyan/shared-scratch-kabdelma-pvc/kabdelma/HER-metal-complex-ligands/Runs//ni_thd_2_diphenylamine_4_s_1/ni_thd_2_diphenylamine_4_s_1_conf_1
97	109	1
SMALL
PartialCharges
****
Generated from molSimplify

@<TRIPOS>ATOM
1 Ni1	0.0  0.0  0.0 Ni	1 RES1 0.0
2 N1	2.14  0.0  0.0 N.pl3	1 RES1 0.0
3 C1	2.875  0.516343  -1.163643 C.ar	1 RES1 0.0
4 C2	4.000323  -0.168399  -1.591829 C.ar	1 RES1 0.0
5 C3	4.840398  0.58588  -2.444699 C.ar	1 RES1 0.0
6 C4	4.469391  1.679274  -3.085682 C.ar	1 RES1 0.0
7 C5	3.312615  2.27088  -2.659861 C.ar	1 RES1 0.0
8 C6	2.50488  1.657458  -1.732947 C.ar	1 RES1 0.0
9 C7	2.875  -0.516343  1.163643 C.2	1 RES1 0.0
10 C8	3.908056  0.214771  1.726522 C.2	1 RES1 0.0
11 C9	4.649056  -0.495795  2.700208 C.3	1 RES1 0.0
12 C10	4.231092  -1.591888  3.306757 C.3	1 RES1 0.0
13 C11	3.163455  -2.23103  2.740101 C.3	1 RES1 0.0
14 C12	2.469263  -1.661183  1.700262 C.3	1 RES1 0.0
15 H1	1.12  0.0  0.0 H	1 RES1 0.0
16 H2	4.214883  -1.176313  -1.303779 H	1 RES1 0.0
17 H3	5.84623  0.246796  -2.579697 H	1 RES1 0.0
18 H4	5.04319  2.08061  -3.894745 H	1 RES1 0.0
19 H5	3.032337  3.22529  -3.054127 H	1 RES1 0.0
20 H6	1.56913  2.103314  -1.467456 H	1 RES1 0.0
21 H7	4.12596  1.225222  1.450103 H	1 RES1 0.0
22 H8	5.615254  -0.118833  2.963384 H	1 RES1 0.0
23 H9	4.702591  -1.959999  4.193934 H	1 RES1 0.0
24 H10	2.864241  -3.188754  3.111766 H	1 RES1 0.0
25 H11	1.593783  -2.144312  1.319447 H	1 RES1 0.0
26 N2	-0.713377  2.017596  -0.0 N.pl3	1 RES1 0.0
27 C13	-0.093968  3.016196  -0.883193 C.ar	1 RES1 0.0
28 C14	0.131051  4.289352  -0.386194 C.ar	1 RES1 0.0
29 C15	0.363381  5.26254  -1.386683 C.ar	1 RES1 0.0
30 C16	0.70236  4.988879  -2.633366 C.ar	1 RES1 0.0
31 C17	0.519954  3.69743  -3.043655 C.ar	1 RES1 0.0
32 C18	0.165824  2.715478  -2.150204 C.ar	1 RES1 0.0
33 C19	-1.822816  2.404914  0.883193 C.ar	1 RES1 0.0
34 C20	-2.901621  3.119203  0.388686 C.ar	1 RES1 0.0
35 C21	-3.78214  3.593826  1.38942 C.ar	1 RES1 0.0
36 C22	-3.826736  3.134737  2.626863 C.ar	1 RES1 0.0
37 C23	-2.762713  2.378543  3.033652 C.ar	1 RES1 0.0
38 C24	-1.793814  1.984817  2.142525 C.ar	1 RES1 0.0
39 H12	-0.373356  1.055938  0.0 H	1 RES1 0.0
40 H13	0.129339  4.516324  0.659454 H	1 RES1 0.0
41 H14	0.257025  6.291789  -1.114221 H	1 RES1 0.0
42 H15	1.098453  5.73754  -3.287215 H	1 RES1 0.0
43 H16	0.654927  3.447871  -4.075354 H	1 RES1 0.0
44 H17	0.09878  1.699253  -2.478369 H	1 RES1 0.0
45 H18	-3.055195  3.296026  -0.655368 H	1 RES1 0.0
46 H19	-4.458939  4.379341  1.125203 H	1 RES1 0.0
47 H20	-4.651201  3.343329  3.276206 H	1 RES1 0.0
48 H21	-2.683418  2.089212  4.060735 H	1 RES1 0.0
49 H22	-1.008801  1.333786  2.466272 H	1 RES1 0.0
50 N3	-0.713375  -1.008786  1.747297 N.pl3	1 RES1 0.0
51 C25	-2.111736  -0.846196  2.170444 C.ar	1 RES1 0.0
52 C26	-2.381179  -0.702719  3.52151 C.ar	1 RES1 0.0
53 C27	-3.734295  -0.934698  3.864019 C.ar	1 RES1 0.0
54 C28	-4.736157  -0.929431  3.003635 C.ar	1 RES1 0.0
55 C29	-4.401498  -1.00465  1.68008 C.ar	1 RES1 0.0
56 C30	-3.091041  -0.916947  1.276467 C.ar	1 RES1 0.0
57 C31	0.194956  -1.864328  2.524396 C.2	1 RES1 0.0
58 C32	-0.185922  -3.143226  2.895768 C.2	1 RES1 0.0
59 C33	0.70091  -3.763555  3.807235 C.3	1 RES1 0.0
60 C34	1.942543  -3.371838  4.028415 C.3	1 RES1 0.0
61 C35	2.276485  -2.125219  3.576892 C.3	1 RES1 0.0
62 C36	1.411545  -1.403401  2.790284 C.3	1 RES1 0.0
63 H23	-0.373355  -0.527963  0.914473 H	1 RES1 0.0
64 H24	-1.633872  -0.440268  4.240921 H	1 RES1 0.0
65 H25	-3.961615  -1.127822  4.891603 H	1 RES1 0.0
66 H26	-5.75499  -0.86952  3.325021 H	1 RES1 0.0
67 H27	-5.171189  -1.13367  0.948076 H	1 RES1 0.0
68 H28	-2.857538  -0.905557  0.232318 H	1 RES1 0.0
69 H29	-1.070528  -3.618908  2.526853 H	1 RES1 0.0
70 H30	0.34047  -4.608822  4.35542 H	1 RES1 0.0
71 H31	2.649207  -3.996436  4.533789 H	1 RES1 0.0
72 H32	3.225037  -1.705718  3.839893 H	1 RES1 0.0
73 H33	1.721116  -0.461332  2.388325 H	1 RES1 0.0
74 N4	-0.713375  -1.008786  -1.747297 N.pl3	1 RES1 0.0
75 C37	-2.099463  -1.495425  -1.800628 C.ar	1 RES1 0.0
76 C38	-2.342704  -2.738043  -2.362142 C.ar	1 RES1 0.0
77 C39	-3.696143  -2.952965  -2.714367 C.ar	1 RES1 0.0
78 C40	-4.7113  -2.244378  -2.25461 C.ar	1 RES1 0.0
79 C41	-4.400483  -1.058342  -1.649496 C.ar	1 RES1 0.0
80 C42	-3.094791  -0.718566  -1.389469 C.ar	1 RES1 0.0
81 C43	0.182683  -1.215098  -2.894212 C.ar	1 RES1 0.0
82 C44	-0.228448  -0.893552  -4.177234 C.ar	1 RES1 0.0
83 C45	0.655018  -1.335896  -5.190086 C.ar	1 RES1 0.0
84 C46	1.910756  -1.69029  -4.986264 C.ar	1 RES1 0.0
85 C47	2.272753  -1.927801  -3.689346 C.ar	1 RES1 0.0
86 C48	1.416092  -1.643924  -2.653277 C.ar	1 RES1 0.0
87 H34	-0.373355  -0.527963  -0.914473 H	1 RES1 0.0
88 H35	-1.576617  -3.469107  -2.515625 H	1 RES1 0.0
89 H36	-3.912147  -3.74467  -3.400986 H	1 RES1 0.0
90 H37	-5.72265  -2.580351  -2.350492 H	1 RES1 0.0
91 H38	-5.18534  -0.38509  -1.374485 H	1 RES1 0.0
92 H39	-2.878062  0.180177  -0.850777 H	1 RES1 0.0
93 H40	-1.132149  -0.359137  -4.383694 H	1 RES1 0.0
94 H41	0.279562  -1.386802  -6.190757 H	1 RES1 0.0
95 H42	2.607429  -1.786391  -5.792682 H	1 RES1 0.0
96 H43	3.23704  -2.340681  -3.478203 H	1 RES1 0.0
97 H44	1.745845  -1.769544  -1.643137 H	1 RES1 0.0
@<TRIPOS>BOND
1 1 2 1
1 1 26 1
1 1 50 1
1 1 74 1
1 2 3 1
1 2 9 1
1 2 15 1
1 3 4 2
1 3 8 1
1 4 5 1
1 4 16 1
1 5 6 2
1 5 17 1
1 6 7 1
1 6 18 1
1 7 8 2
1 7 19 1
1 8 20 1
1 9 10 2
1 9 14 1
1 10 11 1
1 10 21 1
1 11 12 1
1 11 22 1
1 12 13 1
1 12 23 1
1 12 72 1
1 13 14 1
1 13 24 1
1 13 61 1
1 13 72 1
1 14 25 1
1 14 62 1
1 24 61 1
1 26 27 1
1 26 33 1
1 26 39 1
1 27 28 2
1 27 32 1
1 28 29 1
1 28 40 1
1 29 30 2
1 29 41 1
1 30 31 1
1 30 42 1
1 31 32 2
1 31 43 1
1 32 44 1
1 33 34 2
1 33 38 1
1 34 35 1
1 34 45 1
1 35 36 2
1 35 46 1
1 36 37 1
1 36 47 1
1 37 38 2
1 37 48 1
1 38 49 1
1 50 51 1
1 50 57 1
1 50 63 1
1 51 52 2
1 51 56 1
1 52 53 1
1 52 64 1
1 53 54 2
1 53 65 1
1 54 55 1
1 54 66 1
1 55 56 2
1 55 67 1
1 56 68 1
1 57 58 2
1 57 62 1
1 58 59 1
1 58 69 1
1 59 60 1
1 59 70 1
1 60 61 1
1 60 71 1
1 61 62 1
1 61 72 1
1 62 73 1
1 74 75 1
1 74 81 1
1 74 87 1
1 75 76 2
1 75 80 1
1 76 77 1
1 76 88 1
1 77 78 2
1 77 89 1
1 78 79 1
1 78 90 1
1 79 80 2
1 79 91 1
1 80 92 1
1 81 82 2
1 81 86 1
1 82 83 1
1 82 93 1
1 83 84 2
1 83 94 1
1 84 85 1
1 84 95 1
1 85 86 2
1 85 96 1
1 86 97 1
@<TRIPOS>SUBSTRUCTURE
1 RES1 97

