@<TRIPOS>MOLECULE
/Users/abdulahmed/Documents/GitHub/HER-metal-complex-ligands/Runs//ni_thd_2_4fluoro2nitrophenol_3_hydride_1_s_1/ni_thd_2_4fluoro2nitrophenol_3_hydride_1_s_1_conf_1
47	48	2
SMALL
PartialCharges
****
Generated from molSimplify

@<TRIPOS>ATOM
1 Ni1	0.0  0.0  0.0 Ni	1 RES1 0.0
2 O1	2.0  0.0  0.0 O.3	1 RES1 0.0
3 C1	2.955651  0.963645  0.045017 C.ar	1 RES1 0.0
4 C2	2.638364  2.284389  0.106717 C.ar	1 RES1 0.0
5 C3	3.625183  3.233036  0.131794 C.ar	1 RES1 0.0
6 C4	4.89808  2.796693  0.089846 C.ar	1 RES1 0.0
7 F1	5.887701  3.710082  0.032833 F	1 RES1 0.0
8 C5	5.25924  1.478812  0.067542 C.ar	1 RES1 0.0
9 C6	4.249343  0.55742  0.022601 C.ar	1 RES1 0.0
10 N1	4.566917  -0.876022  -0.050143 N.pl3	1 RES1 0.0
11 O2	5.873338  -1.287906  -0.072864 O.2	1 RES1 0.0
12 O3	3.662564  -1.703041  -0.090484 O.2	1 RES1 0.0
13 H1	2.263366  -0.963645  -0.045017 H	1 RES1 0.0
14 H2	1.611583  2.584011  0.135836 H	1 RES1 0.0
15 H3	3.394593  4.27666  0.182564 H	1 RES1 0.0
16 H4	6.28679  1.180898  0.08449 H	1 RES1 0.0
17 O4	-0.666707  1.885604  0.0 O.3	1 RES1 0.0
18 C7	-1.561659  2.582797  0.74625 C.ar	1 RES1 0.0
19 C8	-2.245862  2.004342  1.769039 C.ar	1 RES1 0.0
20 C9	-3.155713  2.729327  2.490802 C.ar	1 RES1 0.0
21 C10	-3.334158  4.016354  2.138467 C.ar	1 RES1 0.0
22 F2	-4.280216  4.731509  2.779098 F	1 RES1 0.0
23 C11	-2.638784  4.645294  1.144166 C.ar	1 RES1 0.0
24 C12	-1.752351  3.887551  0.429367 C.ar	1 RES1 0.0
25 N2	-1.004885  4.488679  -0.684563 N.pl3	1 RES1 0.0
26 O5	-1.196464  5.80662  -1.005856 O.2	1 RES1 0.0
27 O6	-0.209949  3.810532  -1.326152 O.2	1 RES1 0.0
28 H5	-0.178119  2.337701  -0.74625 H	1 RES1 0.0
29 H6	-2.072198  0.976672  2.011186 H	1 RES1 0.0
30 H7	-3.701651  2.291716  3.300337 H	1 RES1 0.0
31 H8	-2.781506  5.684721  0.934113 H	1 RES1 0.0
32 O7	-0.666706  -0.942791  1.632988 O.3	1 RES1 0.0
33 C13	-1.256088  -2.142965  1.869881 C.ar	1 RES1 0.0
34 C14	-1.521487  -3.020893  0.866065 C.ar	1 RES1 0.0
35 C15	-2.134089  -4.21538  1.134935 C.ar	1 RES1 0.0
36 C16	-2.454893  -4.466193  2.418134 C.ar	1 RES1 0.0
37 F3	-3.12979  -5.598148  2.701105 F	1 RES1 0.0
38 C17	-2.170139  -3.628951  3.460096 C.ar	1 RES1 0.0
39 C18	-1.57623  -2.435218  3.154894 C.ar	1 RES1 0.0
40 N3	-1.284375  -1.467133  4.221914 N.pl3	1 RES1 0.0
41 O8	-1.607206  -1.760965  5.520507 O.2	1 RES1 0.0
42 O9	-0.752002  -0.396657  3.949692 O.2	1 RES1 0.0
43 H9	-0.483687  -0.317255  2.391414 H	1 RES1 0.0
44 H10	-1.250011  -2.776816  -0.139732 H	1 RES1 0.0
45 H11	-2.348723  -4.9195  0.358373 H	1 RES1 0.0
46 H12	-2.401608  -3.895542  4.470171 H	1 RES1 0.0
47 H13	-0.526698  -0.744805  -1.29006 H	2 RES2 0.0
@<TRIPOS>BOND
1 1 2 1
1 1 17 1
1 1 32 1
1 2 3 1
1 2 13 1
1 3 4 2
1 3 9 1
1 4 5 1
1 4 14 1
1 5 6 2
1 5 15 1
1 6 7 1
1 6 8 1
1 8 9 2
1 8 16 1
1 9 10 1
1 10 11 2
1 10 12 2
1 17 18 1
1 17 28 1
1 18 19 2
1 18 24 1
1 19 20 1
1 19 29 1
1 20 21 2
1 20 30 1
1 21 22 1
1 21 23 1
1 23 24 2
1 23 31 1
1 24 25 1
1 25 26 2
1 25 27 2
1 32 33 1
1 32 43 1
1 33 34 2
1 33 39 1
1 34 35 1
1 34 44 1
1 35 36 2
1 35 45 1
1 36 37 1
1 36 38 1
1 38 39 2
1 38 46 1
1 39 40 1
1 40 41 2
1 40 42 2
@<TRIPOS>SUBSTRUCTURE
1 RES1 46
2 RES2 1

