@<TRIPOS>MOLECULE
/Users/abdulahmed/Documents/GitHub/HER-metal-complex-ligands/Runs//ni_li_2_2_6diphenylpyridine_1_hydride_1_s_1/badjob_ni_li_2_2_6diphenylpyridine_1_hydride_1_s_1_conf_1
33	41	1
SMALL
PartialCharges
****
Generated from molSimplify

@<TRIPOS>ATOM
1 Ni1	0.0  0.0  0.0 Ni	1 RES1 0.0
2 C1	3.751633  -2.874804  3.766947 C.ar	1 RES1 0.0
3 C2	3.993238  -1.518619  3.622189 C.ar	1 RES1 0.0
4 C3	3.035348  -0.847455  2.825925 C.ar	1 RES1 0.0
5 C4	2.201376  -1.44516  1.994507 C.ar	1 RES1 0.0
6 C5	2.05787  -2.796632  2.1441 C.ar	1 RES1 0.0
7 C6	2.868652  -3.502942  2.999467 C.ar	1 RES1 0.0
8 C7	1.441875  -0.672251  0.928594 C.3	1 RES1 0.0
9 C8	0.061205  -0.68923  0.952395 C.3	1 RES1 0.0
10 C9	-0.651477  -0.002934  -0.033997 C.3	1 RES1 0.0
11 C10	0.07827  0.687818  -0.99318 C.3	1 RES1 0.0
12 C11	1.452737  0.672251  -0.928594 C.3	1 RES1 0.0
13 N1	2.14  0.0  0.0 N.3	1 RES1 0.0
14 C12	2.230884  1.461615  -1.968687 C.ar	1 RES1 0.0
15 C13	2.976398  0.703066  -2.856029 C.ar	1 RES1 0.0
16 C14	3.794509  1.469849  -3.71904 C.ar	1 RES1 0.0
17 C15	3.636405  2.760427  -3.950181 C.ar	1 RES1 0.0
18 C16	2.833283  3.440626  -3.077383 C.ar	1 RES1 0.0
19 C17	2.103664  2.774389  -2.122564 C.ar	1 RES1 0.0
20 H1	4.286626  -3.426738  4.511293 H	1 RES1 0.0
21 H2	4.828472  -1.023443  4.071729 H	1 RES1 0.0
22 H3	2.983049  0.218501  2.902759 H	1 RES1 0.0
23 H4	1.303316  -3.311639  1.587039 H	1 RES1 0.0
24 H5	2.787803  -4.568798  3.047579 H	1 RES1 0.0
25 H6	-0.458484  -1.223632  1.720013 H	1 RES1 0.0
26 H7	-1.721339  -0.009158  -0.050053 H	1 RES1 0.0
27 H8	-0.421767  1.224874  -1.771918 H	1 RES1 0.0
28 H9	2.937191  -0.365792  -2.886141 H	1 RES1 0.0
29 H10	4.597094  0.969221  -4.219168 H	1 RES1 0.0
30 H11	4.111266  3.247583  -4.776066 H	1 RES1 0.0
31 H12	2.772086  4.507108  -3.138795 H	1 RES1 0.0
32 H13	1.426826  3.31833  -1.49733 H	1 RES1 0.0
33 H14	-1.58  0.0  0.0 H	1 RES1 0.0
@<TRIPOS>BOND
1 1 8 1
1 1 9 1
1 1 10 1
1 1 11 1
1 1 12 1
1 1 13 1
1 2 3 2
1 2 7 1
1 2 20 1
1 3 4 1
1 3 21 1
1 4 5 2
1 4 22 1
1 5 6 1
1 5 8 1
1 6 7 2
1 6 23 1
1 7 24 1
1 8 9 1
1 8 13 1
1 9 10 1
1 9 25 1
1 10 11 1
1 10 26 1
1 10 33 1
1 11 12 1
1 11 27 1
1 12 13 1
1 12 14 1
1 14 15 2
1 14 19 1
1 15 16 1
1 15 28 1
1 16 17 2
1 16 29 1
1 17 18 1
1 17 30 1
1 18 19 2
1 18 31 1
1 19 32 1
1 26 33 1
@<TRIPOS>SUBSTRUCTURE
1 RES1 33

