@<TRIPOS>MOLECULE
/Users/abdulahmed/Documents/GitHub/HER-metal-complex-ligands/Runs//ni_oct_2_2mercaptopyridine_2_hydride_2_s_1/ni_oct_2_2mercaptopyridine_2_hydride_2_s_1_conf_1
25	28	3
SMALL
PartialCharges
****
Generated from molSimplify

@<TRIPOS>ATOM
1 Ni1	0.0  0.0  0.0 Ni	1 RES1 0.0
2 S1	0.0  2.23  0.0 S.3	1 RES1 0.0
3 C1	1.578957  1.772373  0.005717 C.3	1 RES1 0.0
4 N1	1.760911  0.469089  0.0 N.pl3	1 RES1 0.0
5 C2	3.05463  0.048027  0.004449 C.2	1 RES1 0.0
6 C3	4.172882  0.795952  0.013963 C.2	1 RES1 0.0
7 C4	3.98927  2.222918  0.020303 C.2	1 RES1 0.0
8 C5	2.741681  2.714607  0.016449 C.2	1 RES1 0.0
9 H1	3.231886  -1.027655  -0.000132 H	1 RES1 0.0
10 H2	5.164434  0.366032  0.016827 H	1 RES1 0.0
11 H3	4.856003  2.867897  0.02801 H	1 RES1 0.0
12 H4	2.54043  3.776498  0.020837 H	1 RES1 0.0
13 S2	-0.0  -2.23  0.0 S.3	1 RES1 0.0
14 C6	0.005717  -1.772373  1.578957 C.3	1 RES1 0.0
15 N2	-0.0  -0.469089  1.760911 N.pl3	1 RES1 0.0
16 C7	0.004449  -0.048027  3.05463 C.2	1 RES1 0.0
17 C8	0.013963  -0.795952  4.172882 C.2	1 RES1 0.0
18 C9	0.020303  -2.222918  3.98927 C.2	1 RES1 0.0
19 C10	0.016449  -2.714607  2.741681 C.2	1 RES1 0.0
20 H5	-0.000132  1.027655  3.231886 H	1 RES1 0.0
21 H6	0.016827  -0.366032  5.164434 H	1 RES1 0.0
22 H7	0.02801  -2.867897  4.856003 H	1 RES1 0.0
23 H8	0.020837  -3.776498  2.54043 H	1 RES1 0.0
24 H9	-1.58  0.0  0.0 H	2 RES2 0.0
25 H10	0.0  0.0  -1.58 H	3 RES3 0.0
@<TRIPOS>BOND
1 1 2 1
1 1 3 1
1 1 4 1
1 1 13 1
1 1 14 1
1 1 15 1
1 2 3 1
1 3 4 1
1 3 8 1
1 4 5 1
1 5 6 2
1 5 9 1
1 6 7 1
1 6 10 1
1 7 8 2
1 7 11 1
1 8 12 1
1 13 14 1
1 14 15 1
1 14 19 1
1 15 16 1
1 16 17 2
1 16 20 1
1 17 18 1
1 17 21 1
1 18 19 2
1 18 22 1
1 19 23 1
@<TRIPOS>SUBSTRUCTURE
1 RES1 23
2 RES2 1
3 RES3 1

