@<TRIPOS>MOLECULE
/home/jovyan/shared-scratch-kabdelma-pvc/kabdelma/HER-metal-complex-ligands/Runs//ni_oct_2_2-mercaptopyridine_3_s_1/ni_oct_2_2-mercaptopyridine_3_s_1_conf_1
34	39	1
SMALL
PartialCharges
****
Generated from molSimplify

@<TRIPOS>ATOM
1 Ni1	0.0  0.0  0.0 Ni	1 RES1 0.0
2 S1	0.0  2.310683  -0.0 S.3	1 RES1 0.0
3 C1	1.578697  1.852797  -0.0248 C.3	1 RES1 0.0
4 N1	1.760911  0.549772  -0.0 N.pl3	1 RES1 0.0
5 C2	3.054428  0.12851  -0.0193 C.2	1 RES1 0.0
6 C3	4.172247  0.876004  -0.060573 C.2	1 RES1 0.0
7 C4	3.988347  2.302681  -0.088072 C.2	1 RES1 0.0
8 C5	2.740931  2.794545  -0.071354 C.2	1 RES1 0.0
9 H1	3.231894  -0.946963  0.00057 H	1 RES1 0.0
10 H2	5.16367  0.445955  -0.072994 H	1 RES1 0.0
11 H3	4.854729  2.947312  -0.121505 H	1 RES1 0.0
12 H4	2.53948  3.856235  -0.090388 H	1 RES1 0.0
13 S2	0.0  -2.310683  0.0 S.3	1 RES1 0.0
14 C6	-0.0248  -1.852797  1.578697 C.3	1 RES1 0.0
15 N2	0.0  -0.549772  1.760911 N.pl3	1 RES1 0.0
16 C7	-0.0193  -0.12851  3.054428 C.2	1 RES1 0.0
17 C8	-0.060573  -0.876004  4.172247 C.2	1 RES1 0.0
18 C9	-0.088072  -2.302681  3.988347 C.2	1 RES1 0.0
19 C10	-0.071354  -2.794545  2.740931 C.2	1 RES1 0.0
20 H5	0.00057  0.946963  3.231894 H	1 RES1 0.0
21 H6	-0.072994  -0.445955  5.16367 H	1 RES1 0.0
22 H7	-0.121505  -2.947312  4.854729 H	1 RES1 0.0
23 H8	-0.090388  -3.856235  2.53948 H	1 RES1 0.0
24 S3	-2.310683  0.0  0.0 S.3	1 RES1 0.0
25 C11	-1.852797  -0.0248  -1.578697 C.3	1 RES1 0.0
26 N3	-0.549772  -0.0  -1.760911 N.pl3	1 RES1 0.0
27 C12	-0.12851  -0.0193  -3.054428 C.2	1 RES1 0.0
28 C13	-0.876004  -0.060573  -4.172247 C.2	1 RES1 0.0
29 C14	-2.302681  -0.088072  -3.988347 C.2	1 RES1 0.0
30 C15	-2.794545  -0.071354  -2.740931 C.2	1 RES1 0.0
31 H9	0.946963  0.00057  -3.231894 H	1 RES1 0.0
32 H10	-0.445955  -0.072994  -5.16367 H	1 RES1 0.0
33 H11	-2.947312  -0.121505  -4.854729 H	1 RES1 0.0
34 H12	-3.856235  -0.090388  -2.53948 H	1 RES1 0.0
@<TRIPOS>BOND
1 1 2 1
1 1 4 1
1 1 13 1
1 1 15 1
1 1 24 1
1 1 26 1
1 2 3 1
1 3 4 1
1 3 8 1
1 4 5 1
1 5 6 2
1 5 9 1
1 6 7 1
1 6 10 1
1 7 8 2
1 7 11 1
1 8 12 1
1 13 14 1
1 14 15 1
1 14 19 1
1 15 16 1
1 16 17 2
1 16 20 1
1 17 18 1
1 17 21 1
1 18 19 2
1 18 22 1
1 19 23 1
1 24 25 1
1 25 26 1
1 25 30 1
1 26 27 1
1 27 28 2
1 27 31 1
1 28 29 1
1 28 32 1
1 29 30 2
1 29 33 1
1 30 34 1
@<TRIPOS>SUBSTRUCTURE
1 RES1 34

