@<TRIPOS>MOLECULE
/Users/abdulahmed/Documents/GitHub/HER-metal-complex-ligands/Runs//ni_oct_2_2mercaptopyridine_3_s_1/ni_oct_2_2mercaptopyridine_3_s_1_conf_1
34	39	1
SMALL
PartialCharges
****
Generated from molSimplify

@<TRIPOS>ATOM
1 Ni1	0.0  0.0  0.0 Ni	1 RES1 0.0
2 S1	0.0  2.23  0.0 S.3	1 RES1 0.0
3 C1	1.578721  1.772141  0.023588 C.3	1 RES1 0.0
4 N1	1.760911  0.469089  0.0 N.pl3	1 RES1 0.0
5 C2	3.054452  0.047857  0.018357 C.2	1 RES1 0.0
6 C3	4.172311  0.795402  0.057614 C.2	1 RES1 0.0
7 C4	3.988433  2.222108  0.08377 C.2	1 RES1 0.0
8 C5	2.740998  2.713944  0.067868 C.2	1 RES1 0.0
9 H1	3.231906  -1.027636  -0.000542 H	1 RES1 0.0
10 H2	5.163749  0.365374  0.069429 H	1 RES1 0.0
11 H3	4.854845  2.86678  0.11557 H	1 RES1 0.0
12 H4	2.539559  3.775654  0.085973 H	1 RES1 0.0
13 S2	0.0  -2.23  0.0 S.3	1 RES1 0.0
14 C6	0.023588  -1.772141  1.578721 C.3	1 RES1 0.0
15 N2	-0.0  -0.469089  1.760911 N.pl3	1 RES1 0.0
16 C7	0.018357  -0.047857  3.054452 C.2	1 RES1 0.0
17 C8	0.057614  -0.795402  4.172311 C.2	1 RES1 0.0
18 C9	0.08377  -2.222108  3.988433 C.2	1 RES1 0.0
19 C10	0.067868  -2.713944  2.740998 C.2	1 RES1 0.0
20 H5	-0.000542  1.027636  3.231906 H	1 RES1 0.0
21 H6	0.069429  -0.365374  5.163749 H	1 RES1 0.0
22 H7	0.11557  -2.86678  4.854845 H	1 RES1 0.0
23 H8	0.085973  -3.775654  2.539559 H	1 RES1 0.0
24 S3	-2.23  0.0  0.0 S.3	1 RES1 0.0
25 C11	-1.772141  0.023588  -1.578721 C.3	1 RES1 0.0
26 N3	-0.469089  -0.0  -1.760911 N.pl3	1 RES1 0.0
27 C12	-0.047857  0.018357  -3.054452 C.2	1 RES1 0.0
28 C13	-0.795402  0.057614  -4.172311 C.2	1 RES1 0.0
29 C14	-2.222108  0.08377  -3.988433 C.2	1 RES1 0.0
30 C15	-2.713944  0.067868  -2.740998 C.2	1 RES1 0.0
31 H9	1.027636  -0.000542  -3.231906 H	1 RES1 0.0
32 H10	-0.365374  0.069429  -5.163749 H	1 RES1 0.0
33 H11	-2.86678  0.11557  -4.854845 H	1 RES1 0.0
34 H12	-3.775654  0.085973  -2.539559 H	1 RES1 0.0
@<TRIPOS>BOND
1 1 2 1
1 1 4 1
1 1 13 1
1 1 15 1
1 1 24 1
1 1 26 1
1 2 3 1
1 3 4 1
1 3 8 1
1 4 5 1
1 5 6 2
1 5 9 1
1 6 7 1
1 6 10 1
1 7 8 2
1 7 11 1
1 8 12 1
1 13 14 1
1 14 15 1
1 14 19 1
1 15 16 1
1 16 17 2
1 16 20 1
1 17 18 1
1 17 21 1
1 18 19 2
1 18 22 1
1 19 23 1
1 24 25 1
1 25 26 1
1 25 30 1
1 26 27 1
1 27 28 2
1 27 31 1
1 28 29 1
1 28 32 1
1 29 30 2
1 29 33 1
1 30 34 1
@<TRIPOS>SUBSTRUCTURE
1 RES1 34

