@<TRIPOS>MOLECULE
/Users/abdulahmed/Documents/GitHub/HER-metal-complex-ligands/Runs//hydride/hydride
53	54	2
SMALL
PartialCharges
****
Generated from molSimplify

@<TRIPOS>ATOM
1 Ni1	0.0  0.0  0.0 Ni	1 RES1 0.0
2 C1	7.360538  3.283694  -1.440097 C.3	1 RES1 0.0
3 O1	5.970056  3.571513  -1.450983 O.3	1 RES1 0.0
4 C2	5.035107  2.672719  -1.067651 C.ar	1 RES1 0.0
5 C3	3.716166  3.043659  -1.177351 C.ar	1 RES1 0.0
6 C4	2.716521  2.157267  -0.825981 C.ar	1 RES1 0.0
7 C5	3.033964  0.908955  -0.348023 C.ar	1 RES1 0.0
8 O2	2.0  0.0  -0.0 O.3	1 RES1 0.0
9 C6	4.352613  0.536651  -0.205475 C.ar	1 RES1 0.0
10 C7	5.389725  1.409042  -0.551827 C.ar	1 RES1 0.0
11 H1	7.505182  2.224793  -1.388073 H	1 RES1 0.0
12 H2	7.814198  3.747863  -0.589427 H	1 RES1 0.0
13 H3	7.809994  3.661548  -2.334589 H	1 RES1 0.0
14 H4	3.463449  4.019856  -1.535223 H	1 RES1 0.0
15 H5	1.690617  2.444171  -0.926508 H	1 RES1 0.0
16 H6	2.229523  -0.908955  0.348023 H	1 RES1 0.0
17 H7	4.587169  -0.435068  0.176161 H	1 RES1 0.0
18 H8	6.414863  1.127782  -0.42982 H	1 RES1 0.0
19 C8	-5.595033  5.828811  -1.324621 C.3	1 RES1 0.0
20 O3	-5.40306  4.421848  -1.325455 O.3	1 RES1 0.0
21 C9	-4.23191  3.84427  -0.973724 C.ar	1 RES1 0.0
22 C10	-4.145355  2.475915  -1.070411 C.ar	1 RES1 0.0
23 C11	-2.965376  1.832838  -0.75019 C.ar	1 RES1 0.0
24 C12	-1.879276  2.553559  -0.316089 C.ar	1 RES1 0.0
25 O4	-0.666707  1.885604  0.0 O.3	1 RES1 0.0
26 C13	-1.963368  3.922476  -0.186621 C.ar	1 RES1 0.0
27 C14	-3.142479  4.6056  -0.502316 C.ar	1 RES1 0.0
28 H9	-4.643813  6.31856  -1.309583 H	1 RES1 0.0
29 H10	-6.155625  6.111781  -0.45827 H	1 RES1 0.0
30 H11	-6.130316  6.116271  -2.205381 H	1 RES1 0.0
31 H12	-4.992686  1.908269  -1.393997 H	1 RES1 0.0
32 H13	-2.897023  0.768861  -0.840644 H	1 RES1 0.0
33 H14	0.124674  2.408867  0.316089 H	1 RES1 0.0
34 H15	-1.11342  4.471784  0.16087 H	1 RES1 0.0
35 H16	-3.215187  5.667223  -0.390199 H	1 RES1 0.0
36 C15	-2.316681  -6.596622  4.260472 C.3	1 RES1 0.0
37 O5	-1.743418  -6.188717  3.027028 O.3	1 RES1 0.0
38 C16	-1.478431  -4.894602  2.737283 C.ar	1 RES1 0.0
39 C17	-0.978391  -4.613908  1.488121 C.ar	1 RES1 0.0
40 C18	-0.713795  -3.307203  1.126249 C.ar	1 RES1 0.0
41 C19	-0.930581  -2.284115  2.017199 C.ar	1 RES1 0.0
42 O6	-0.666706  -0.942791  1.632988 O.3	1 RES1 0.0
43 C20	-1.403252  -2.555959  3.282287 C.ar	1 RES1 0.0
44 C21	-1.681874  -3.867252  3.681672 C.ar	1 RES1 0.0
45 H17	-2.758496  -5.75126  4.745305 H	1 RES1 0.0
46 H18	-1.555223  -7.010139  4.888234 H	1 RES1 0.0
47 H19	-3.068291  -7.335832  4.077303 H	1 RES1 0.0
48 H20	-0.7939  -5.408215  0.795344 H	1 RES1 0.0
49 H21	-0.338402  -3.090986  0.147868 H	1 RES1 0.0
50 H22	-0.824018  -0.197068  2.280406 H	1 RES1 0.0
51 H23	-1.559703  -1.751443  3.970165 H	1 RES1 0.0
52 H24	-2.036477  -4.082975  4.667887 H	1 RES1 0.0
53 H25	-0.526698  -0.744805  -1.29006 H	2 RES2 0.0
@<TRIPOS>BOND
1 1 8 1
1 1 25 1
1 1 42 1
1 2 3 1
1 2 11 1
1 2 12 1
1 2 13 1
1 3 4 1
1 4 5 2
1 4 10 1
1 5 6 1
1 5 14 1
1 6 7 2
1 6 15 1
1 7 8 1
1 7 9 1
1 8 16 1
1 9 10 2
1 9 17 1
1 10 18 1
1 19 20 1
1 19 28 1
1 19 29 1
1 19 30 1
1 20 21 1
1 21 22 2
1 21 27 1
1 22 23 1
1 22 31 1
1 23 24 2
1 23 32 1
1 24 25 1
1 24 26 1
1 25 33 1
1 26 27 2
1 26 34 1
1 27 35 1
1 36 37 1
1 36 45 1
1 36 46 1
1 36 47 1
1 37 38 1
1 38 39 2
1 38 44 1
1 39 40 1
1 39 48 1
1 40 41 2
1 40 49 1
1 41 42 1
1 41 43 1
1 42 50 1
1 43 44 2
1 43 51 1
1 44 52 1
@<TRIPOS>SUBSTRUCTURE
1 RES1 52
2 RES2 1

