@<TRIPOS>MOLECULE
/Users/abdulahmed/Documents/GitHub/HER-metal-complex-ligands/Runs//3_aminopyridine_2_1H_thione/3_aminopyridine_2_1H_thione
40	45	1
SMALL
PartialCharges
****
Generated from molSimplify

@<TRIPOS>ATOM
1 Ni1	0.0  0.0  0.0 Ni	1 RES1 0.0
2 C1	0.390698  4.528535  0.132378 C.2	1 RES1 0.0
3 C2	-0.437894  3.416175  0.053824 C.3	1 RES1 0.0
4 N1	0.0  2.14  0.0 N.pl3	1 RES1 0.0
5 C3	1.31877  1.979566  0.002631 C.2	1 RES1 0.0
6 S1	1.786667  0.353333  -0.0 S.3	1 RES1 0.0
7 C4	2.256195  3.026025  0.027179 C.2	1 RES1 0.0
8 C5	1.766838  4.322441  0.142952 C.2	1 RES1 0.0
9 N2	3.651991  2.76761  0.197516 N.pl3	1 RES1 0.0
10 H1	-0.025798  5.525043  0.194758 H	1 RES1 0.0
11 H2	-1.51727  3.522238  0.043719 H	1 RES1 0.0
12 H3	2.454263  5.15546  0.229003 H	1 RES1 0.0
13 H4	3.73158  1.818698  -0.210025 H	1 RES1 0.0
14 H5	3.769251  2.586183  1.193735 H	1 RES1 0.0
15 C6	0.132378  -4.528535  0.390698 C.2	1 RES1 0.0
16 C7	0.053824  -3.416175  -0.437894 C.3	1 RES1 0.0
17 N3	0.0  -2.14  0.0 N.pl3	1 RES1 0.0
18 C8	0.002631  -1.979566  1.31877 C.2	1 RES1 0.0
19 S2	-0.0  -0.353333  1.786667 S.3	1 RES1 0.0
20 C9	0.027179  -3.026025  2.256195 C.2	1 RES1 0.0
21 C10	0.142952  -4.322441  1.766838 C.2	1 RES1 0.0
22 N4	0.197516  -2.76761  3.651991 N.pl3	1 RES1 0.0
23 H6	0.194758  -5.525043  -0.025798 H	1 RES1 0.0
24 H7	0.043719  -3.522238  -1.51727 H	1 RES1 0.0
25 H8	0.229003  -5.15546  2.454263 H	1 RES1 0.0
26 H9	-0.210025  -1.818698  3.73158 H	1 RES1 0.0
27 H10	1.193735  -2.586183  3.769251 H	1 RES1 0.0
28 C11	-4.528535  0.132378  -0.390698 C.2	1 RES1 0.0
29 C12	-3.416175  0.053824  0.437894 C.3	1 RES1 0.0
30 N5	-2.14  0.0  0.0 N.pl3	1 RES1 0.0
31 C13	-1.979566  0.002631  -1.31877 C.2	1 RES1 0.0
32 S3	-0.353333  -0.0  -1.786667 S.3	1 RES1 0.0
33 C14	-3.026025  0.027179  -2.256195 C.2	1 RES1 0.0
34 C15	-4.322441  0.142952  -1.766838 C.2	1 RES1 0.0
35 N6	-2.76761  0.197516  -3.651991 N.pl3	1 RES1 0.0
36 H11	-5.525043  0.194758  0.025798 H	1 RES1 0.0
37 H12	-3.522238  0.043719  1.51727 H	1 RES1 0.0
38 H13	-5.15546  0.229003  -2.454263 H	1 RES1 0.0
39 H14	-1.818698  -0.210025  -3.73158 H	1 RES1 0.0
40 H15	-2.586183  1.193735  -3.769251 H	1 RES1 0.0
@<TRIPOS>BOND
1 1 4 1
1 1 6 1
1 1 17 1
1 1 19 1
1 1 30 1
1 1 32 1
1 2 3 1
1 2 8 2
1 2 10 1
1 3 4 1
1 3 11 1
1 4 5 1
1 5 6 1
1 5 7 2
1 7 8 1
1 7 9 1
1 8 12 1
1 9 13 1
1 9 14 1
1 15 16 1
1 15 21 2
1 15 23 1
1 16 17 1
1 16 24 1
1 17 18 1
1 18 19 1
1 18 20 2
1 20 21 1
1 20 22 1
1 21 25 1
1 22 26 1
1 22 27 1
1 28 29 1
1 28 34 2
1 28 36 1
1 29 30 1
1 29 37 1
1 30 31 1
1 31 32 1
1 31 33 2
1 33 34 1
1 33 35 1
1 34 38 1
1 35 39 1
1 35 40 1
@<TRIPOS>SUBSTRUCTURE
1 RES1 40

