@<TRIPOS>MOLECULE
/home/jovyan/shared-scratch-kabdelma-pvc/kabdelma/HER-metal-complex-ligands/Runs//ni_oct_2_3-Aminopyridine-2-1H-thione_3_s_1/ni_oct_2_3-Aminopyridine-2-1H-thione_3_s_1_conf_1
40	45	1
SMALL
PartialCharges
****
Generated from molSimplify

@<TRIPOS>ATOM
1 Ni1	0.0  0.0  0.0 Ni	1 RES1 0.0
2 C1	0.284533  4.735937  -0.067317 C.2	1 RES1 0.0
3 C2	-0.442396  3.605819  -0.046569 C.3	1 RES1 0.0
4 N1	0.0  2.322543  0.0 N.pl3	1 RES1 0.0
5 C3	1.307643  2.159578  0.02134 C.2	1 RES1 0.0
6 S1	1.754139  0.568404  0.0 S.3	1 RES1 0.0
7 C4	2.254579  3.354381  0.024764 C.2	1 RES1 0.0
8 C5	1.714263  4.582521  -0.033568 C.2	1 RES1 0.0
9 N2	3.620545  3.096045  0.025877 N.pl3	1 RES1 0.0
10 H1	-0.163158  5.718909  -0.103637 H	1 RES1 0.0
11 H2	-1.52105  3.763913  -0.069726 H	1 RES1 0.0
12 H3	2.328602  5.471069  -0.04501 H	1 RES1 0.0
13 H4	4.076692  3.666591  -0.675196 H	1 RES1 0.0
14 H5	3.730043  2.100641  -0.179711 H	1 RES1 0.0
15 C6	-0.067317  -4.735937  0.284533 C.2	1 RES1 0.0
16 C7	-0.046569  -3.605819  -0.442396 C.3	1 RES1 0.0
17 N3	-0.0  -2.322543  0.0 N.pl3	1 RES1 0.0
18 C8	0.02134  -2.159578  1.307643 C.2	1 RES1 0.0
19 S2	-0.0  -0.568404  1.754139 S.3	1 RES1 0.0
20 C9	0.024764  -3.354381  2.254579 C.2	1 RES1 0.0
21 C10	-0.033568  -4.582521  1.714263 C.2	1 RES1 0.0
22 N4	0.025877  -3.096045  3.620545 N.pl3	1 RES1 0.0
23 H6	-0.103637  -5.718909  -0.163158 H	1 RES1 0.0
24 H7	-0.069726  -3.763913  -1.52105 H	1 RES1 0.0
25 H8	-0.04501  -5.471069  2.328602 H	1 RES1 0.0
26 H9	-0.675196  -3.666591  4.076692 H	1 RES1 0.0
27 H10	-0.179711  -2.100641  3.730043 H	1 RES1 0.0
28 C11	-4.735937  -0.067317  -0.284533 C.2	1 RES1 0.0
29 C12	-3.605819  -0.046569  0.442396 C.3	1 RES1 0.0
30 N5	-2.322543  0.0  0.0 N.pl3	1 RES1 0.0
31 C13	-2.159578  0.02134  -1.307643 C.2	1 RES1 0.0
32 S3	-0.568404  0.0  -1.754139 S.3	1 RES1 0.0
33 C14	-3.354381  0.024764  -2.254579 C.2	1 RES1 0.0
34 C15	-4.582521  -0.033568  -1.714263 C.2	1 RES1 0.0
35 N6	-3.096045  0.025877  -3.620545 N.pl3	1 RES1 0.0
36 H11	-5.718909  -0.103637  0.163158 H	1 RES1 0.0
37 H12	-3.763913  -0.069726  1.52105 H	1 RES1 0.0
38 H13	-5.471069  -0.04501  -2.328602 H	1 RES1 0.0
39 H14	-3.666591  -0.675196  -4.076692 H	1 RES1 0.0
40 H15	-2.100641  -0.179711  -3.730043 H	1 RES1 0.0
@<TRIPOS>BOND
1 1 4 1
1 1 6 1
1 1 17 1
1 1 19 1
1 1 30 1
1 1 32 1
1 2 3 1
1 2 8 2
1 2 10 1
1 3 4 1
1 3 11 1
1 4 5 1
1 5 6 1
1 5 7 2
1 7 8 1
1 7 9 1
1 8 12 1
1 9 13 1
1 9 14 1
1 15 16 1
1 15 21 2
1 15 23 1
1 16 17 1
1 16 24 1
1 17 18 1
1 18 19 1
1 18 20 2
1 20 21 1
1 20 22 1
1 21 25 1
1 22 26 1
1 22 27 1
1 28 29 1
1 28 34 2
1 28 36 1
1 29 30 1
1 29 37 1
1 30 31 1
1 31 32 1
1 31 33 2
1 33 34 1
1 33 35 1
1 34 38 1
1 35 39 1
1 35 40 1
@<TRIPOS>SUBSTRUCTURE
1 RES1 40

