@<TRIPOS>MOLECULE
/Users/abdulahmed/Documents/GitHub/HER-metal-complex-ligands/Runs//aniline/aniline
53	56	1
SMALL
PartialCharges
****
Generated from molSimplify

@<TRIPOS>ATOM
1 Ni1	0.0  0.0  0.0 Ni	1 RES1 0.0
2 N1	2.14  0.0  0.0 N.pl3	1 RES1 0.0
3 C1	3.221737  -0.991718  -0.085095 C.ar	1 RES1 0.0
4 C2	4.329288  -0.895478  0.802741 C.ar	1 RES1 0.0
5 C3	5.528026  -1.553663  0.482787 C.ar	1 RES1 0.0
6 C4	5.545738  -2.453557  -0.456059 C.ar	1 RES1 0.0
7 C5	4.367439  -2.775689  -1.142558 C.ar	1 RES1 0.0
8 C6	3.243306  -1.920226  -1.042819 C.ar	1 RES1 0.0
9 H1	2.362832  0.991718  0.085095 H	1 RES1 0.0
10 H2	4.249732  -0.326998  1.705736 H	1 RES1 0.0
11 H3	6.427003  -1.314683  1.011587 H	1 RES1 0.0
12 H4	6.461241  -2.948543  -0.70454 H	1 RES1 0.0
13 H5	4.317334  -3.662853  -1.738653 H	1 RES1 0.0
14 H6	2.424377  -2.017003  -1.724647 H	1 RES1 0.0
15 N2	-0.713377  2.017596  -0.0 N.pl3	1 RES1 0.0
16 C7	-2.01229  2.705693  0.015709 C.ar	1 RES1 0.0
17 C8	-2.232592  3.802543  -0.863251 C.ar	1 RES1 0.0
18 C9	-3.272265  4.706402  -0.589989 C.ar	1 RES1 0.0
19 C10	-4.186269  4.402017  0.283797 C.ar	1 RES1 0.0
20 C11	-4.141594  3.16803  0.946152 C.ar	1 RES1 0.0
21 C12	-2.955733  2.39499  0.90633 C.ar	1 RES1 0.0
22 H7	0.150654  2.559449  -0.015709 H	1 RES1 0.0
23 H8	-1.612026  3.93758  -1.724391 H	1 RES1 0.0
24 H9	-3.312403  5.645727  -1.10083 H	1 RES1 0.0
25 H10	-4.973334  5.094774  0.497144 H	1 RES1 0.0
26 H11	-4.998476  2.81191  1.47891 H	1 RES1 0.0
27 H12	-2.818601  1.574865  1.579747 H	1 RES1 0.0
28 N3	-0.713375  -1.008786  1.747297 N.pl3	1 RES1 0.0
29 C13	-1.586359  -2.15031  2.056688 C.ar	1 RES1 0.0
30 C14	-2.559336  -2.026635  3.087321 C.ar	1 RES1 0.0
31 C15	-3.103245  -3.185975  3.664077 C.ar	1 RES1 0.0
32 C16	-2.933931  -4.339991  3.088635 C.ar	1 RES1 0.0
33 C17	-2.218067  -4.427512  1.887254 C.ar	1 RES1 0.0
34 C18	-1.420914  -3.33528  1.46652 C.ar	1 RES1 0.0
35 H13	-0.275274  -0.48223  2.503078 H	1 RES1 0.0
36 H14	-2.873756  -1.05946  3.419906 H	1 RES1 0.0
37 H15	-3.657094  -3.119789  4.577188 H	1 RES1 0.0
38 H16	-3.341801  -5.22369  3.533179 H	1 RES1 0.0
39 H17	-2.273409  -5.314422  1.291244 H	1 RES1 0.0
40 H18	-0.697518  -3.45843  0.687781 H	1 RES1 0.0
41 N4	-0.713375  -1.008786  -1.747297 N.pl3	1 RES1 0.0
42 C19	-0.649242  -0.82513  -3.204368 C.ar	1 RES1 0.0
43 C20	-1.828515  -0.99318  -3.982352 C.ar	1 RES1 0.0
44 C21	-1.715922  -1.224158  -5.363122 C.ar	1 RES1 0.0
45 C22	-0.583259  -1.0159  -5.967487 C.ar	1 RES1 0.0
46 C23	0.523409  -0.550784  -5.244721 C.ar	1 RES1 0.0
47 C24	0.508744  -0.606546  -3.829759 C.ar	1 RES1 0.0
48 H19	-1.21239  -1.807409  -1.355398 H	1 RES1 0.0
49 H20	-2.792145  -0.944054  -3.519854 H	1 RES1 0.0
50 H21	-2.562255  -1.571575  -5.918029 H	1 RES1 0.0
51 H22	-0.496378  -1.19997  -7.017949 H	1 RES1 0.0
52 H23	1.37458  -0.155793  -5.758909 H	1 RES1 0.0
53 H24	1.41192  -0.475467  -3.271196 H	1 RES1 0.0
@<TRIPOS>BOND
1 1 2 1
1 1 15 1
1 1 28 1
1 1 41 1
1 2 3 1
1 2 9 1
1 3 4 2
1 3 8 1
1 4 5 1
1 4 10 1
1 5 6 2
1 5 11 1
1 6 7 1
1 6 12 1
1 7 8 2
1 7 13 1
1 8 14 1
1 15 16 1
1 15 22 1
1 16 17 2
1 16 21 1
1 17 18 1
1 17 23 1
1 18 19 2
1 18 24 1
1 19 20 1
1 19 25 1
1 20 21 2
1 20 26 1
1 21 27 1
1 28 29 1
1 28 35 1
1 29 30 2
1 29 34 1
1 30 31 1
1 30 36 1
1 31 32 2
1 31 37 1
1 32 33 1
1 32 38 1
1 33 34 2
1 33 39 1
1 34 40 1
1 41 42 1
1 41 48 1
1 42 43 2
1 42 47 1
1 43 44 1
1 43 49 1
1 44 45 2
1 44 50 1
1 45 46 1
1 45 51 1
1 46 47 2
1 46 52 1
1 47 53 1
@<TRIPOS>SUBSTRUCTURE
1 RES1 53

