@<TRIPOS>MOLECULE
/Users/abdulahmed/Documents/GitHub/HER-metal-complex-ligands/Runs//aniline_hydride/aniline_hydride
41	42	2
SMALL
PartialCharges
****
Generated from molSimplify

@<TRIPOS>ATOM
1 Ni1	0.0  0.0  0.0 Ni	1 RES1 0.0
2 N1	2.14  0.0  0.0 N.pl3	1 RES1 0.0
3 C1	3.221737  -0.730571  0.676026 C.ar	1 RES1 0.0
4 C2	4.359622  -0.077988  1.226968 C.ar	1 RES1 0.0
5 C3	5.528706  -0.817999  1.468173 C.ar	1 RES1 0.0
6 C4	5.491149  -2.11794  1.450976 C.ar	1 RES1 0.0
7 C5	4.282823  -2.78249  1.202464 C.ar	1 RES1 0.0
8 C6	3.186631  -2.064172  0.665971 C.ar	1 RES1 0.0
9 H1	2.362832  0.730571  -0.676026 H	1 RES1 0.0
10 H2	4.32505  0.966771  1.455408 H	1 RES1 0.0
11 H3	6.450566  -0.312153  1.666147 H	1 RES1 0.0
12 H4	6.384084  -2.680654  1.626819 H	1 RES1 0.0
13 H5	4.188932  -3.826589  1.416805 H	1 RES1 0.0
14 H6	2.343745  -2.582706  0.259074 H	1 RES1 0.0
15 N2	-0.713377  2.017596  -0.0 N.pl3	1 RES1 0.0
16 C7	-1.951366  2.727235  -0.353124 C.ar	1 RES1 0.0
17 C8	-1.954809  3.932936  -1.10841 C.ar	1 RES1 0.0
18 C9	-3.076597  4.776307  -1.054839 C.ar	1 RES1 0.0
19 C10	-4.194348  4.34126  -0.551927 C.ar	1 RES1 0.0
20 C11	-4.284696  3.027682  -0.072566 C.ar	1 RES1 0.0
21 C12	-3.10188  2.283203  0.155775 C.ar	1 RES1 0.0
22 H7	0.089729  2.537907  0.353124 H	1 RES1 0.0
23 H8	-1.110688  4.194729  -1.71159 H	1 RES1 0.0
24 H9	-3.011637  5.777063  -1.42789 H	1 RES1 0.0
25 H10	-5.046012  4.987238  -0.504169 H	1 RES1 0.0
26 H11	-5.241798  2.589685  0.119827 H	1 RES1 0.0
27 H12	-3.130469  1.379072  0.72729 H	1 RES1 0.0
28 N3	-0.713375  -1.008786  1.747297 N.pl3	1 RES1 0.0
29 C13	-1.554164  -2.174434  2.055904 C.ar	1 RES1 0.0
30 C14	-2.569501  -2.144809  3.052096 C.ar	1 RES1 0.0
31 C15	-3.036569  -3.352536  3.595969 C.ar	1 RES1 0.0
32 C16	-2.753322  -4.480771  3.014237 C.ar	1 RES1 0.0
33 C17	-1.991056  -4.492903  1.83855 C.ar	1 RES1 0.0
34 C18	-1.271722  -3.333626  1.458974 C.ar	1 RES1 0.0
35 H13	-0.307468  -0.458106  2.503862 H	1 RES1 0.0
36 H14	-2.973478  -1.211188  3.383839 H	1 RES1 0.0
37 H15	-3.62562  -3.344442  4.489195 H	1 RES1 0.0
38 H16	-3.102819  -5.400874  3.433955 H	1 RES1 0.0
39 H17	-1.952713  -5.372942  1.231129 H	1 RES1 0.0
40 H18	-0.513842  -3.38657  0.705505 H	1 RES1 0.0
41 H19	-0.526698  -0.744805  -1.29006 H	2 RES2 0.0
@<TRIPOS>BOND
1 1 2 1
1 1 15 1
1 1 28 1
1 2 3 1
1 2 9 1
1 3 4 2
1 3 8 1
1 4 5 1
1 4 10 1
1 5 6 2
1 5 11 1
1 6 7 1
1 6 12 1
1 7 8 2
1 7 13 1
1 8 14 1
1 15 16 1
1 15 22 1
1 16 17 2
1 16 21 1
1 17 18 1
1 17 23 1
1 18 19 2
1 18 24 1
1 19 20 1
1 19 25 1
1 20 21 2
1 20 26 1
1 21 27 1
1 28 29 1
1 28 35 1
1 29 30 2
1 29 34 1
1 30 31 1
1 30 36 1
1 31 32 2
1 31 37 1
1 32 33 1
1 32 38 1
1 33 34 2
1 33 39 1
1 34 40 1
@<TRIPOS>SUBSTRUCTURE
1 RES1 40
2 RES2 1

