@<TRIPOS>MOLECULE
/Users/abdulahmed/Documents/GitHub/HER-metal-complex-ligands/Runs//ni_oct_2_2aminobenzethiol_3_s_1/badjob_ni_oct_2_2aminobenzethiol_3_s_1_conf_1
46	53	1
SMALL
PartialCharges
****
Generated from molSimplify

@<TRIPOS>ATOM
1 Ni1	0.0  0.0  0.0 Ni	1 RES1 0.0
2 N1	0.0  2.14  0.0 N.pl3	1 RES1 0.0
3 C1	1.326554  2.618257  -0.028783 C.ar	1 RES1 0.0
4 C2	1.562645  3.990433  0.112586 C.ar	1 RES1 0.0
5 C3	2.866075  4.486138  0.195092 C.ar	1 RES1 0.0
6 C4	3.948382  3.609808  0.179178 C.ar	1 RES1 0.0
7 C5	3.727443  2.234769  0.104752 C.ar	1 RES1 0.0
8 C6	2.422304  1.735087  0.028992 C.ar	1 RES1 0.0
9 S1	2.175162  -0.035162  0.0 S.3	1 RES1 0.0
10 H1	-0.670043  2.801232  -0.380811 H	1 RES1 0.0
11 H2	-0.075637  1.227334  -0.445256 H	1 RES1 0.0
12 H3	0.729838  4.687377  0.155121 H	1 RES1 0.0
13 H4	3.034132  5.556499  0.283601 H	1 RES1 0.0
14 H5	4.962781  3.99452  0.246117 H	1 RES1 0.0
15 H6	4.577353  1.556997  0.1229 H	1 RES1 0.0
16 H7	1.240869  -0.038009  0.963411 H	1 RES1 0.0
17 N2	0.0  -2.14  0.0 N.pl3	1 RES1 0.0
18 C7	-0.028783  -2.618257  1.326554 C.ar	1 RES1 0.0
19 C8	0.112586  -3.990433  1.562645 C.ar	1 RES1 0.0
20 C9	0.195092  -4.486138  2.866075 C.ar	1 RES1 0.0
21 C10	0.179178  -3.609808  3.948382 C.ar	1 RES1 0.0
22 C11	0.104752  -2.234769  3.727443 C.ar	1 RES1 0.0
23 C12	0.028992  -1.735087  2.422304 C.ar	1 RES1 0.0
24 S2	-0.0  0.035162  2.175162 S.3	1 RES1 0.0
25 H8	-0.380811  -2.801232  -0.670043 H	1 RES1 0.0
26 H9	-0.445256  -1.227334  -0.075637 H	1 RES1 0.0
27 H10	0.155121  -4.687377  0.729838 H	1 RES1 0.0
28 H11	0.283601  -5.556499  3.034132 H	1 RES1 0.0
29 H12	0.246117  -3.99452  4.962781 H	1 RES1 0.0
30 H13	0.1229  -1.556997  4.577353 H	1 RES1 0.0
31 H14	0.963411  0.038009  1.240869 H	1 RES1 0.0
32 N3	-2.14  0.0  0.0 N.pl3	1 RES1 0.0
33 C13	-2.618257  -0.028783  -1.326554 C.ar	1 RES1 0.0
34 C14	-3.990433  0.112586  -1.562645 C.ar	1 RES1 0.0
35 C15	-4.486138  0.195092  -2.866075 C.ar	1 RES1 0.0
36 C16	-3.609808  0.179178  -3.948382 C.ar	1 RES1 0.0
37 C17	-2.234769  0.104752  -3.727443 C.ar	1 RES1 0.0
38 C18	-1.735087  0.028992  -2.422304 C.ar	1 RES1 0.0
39 S3	0.035162  -0.0  -2.175162 S.3	1 RES1 0.0
40 H15	-2.801232  -0.380811  0.670043 H	1 RES1 0.0
41 H16	-1.227334  -0.445256  0.075637 H	1 RES1 0.0
42 H17	-4.687377  0.155121  -0.729838 H	1 RES1 0.0
43 H18	-5.556499  0.283601  -3.034132 H	1 RES1 0.0
44 H19	-3.99452  0.246117  -4.962781 H	1 RES1 0.0
45 H20	-1.556997  0.1229  -4.577353 H	1 RES1 0.0
46 H21	0.038009  0.963411  -1.240869 H	1 RES1 0.0
@<TRIPOS>BOND
1 1 2 1
1 1 9 1
1 1 17 1
1 1 24 1
1 1 32 1
1 1 39 1
1 2 3 1
1 2 10 1
1 2 11 1
1 3 4 2
1 3 8 1
1 4 5 1
1 4 12 1
1 5 6 2
1 5 13 1
1 6 7 1
1 6 14 1
1 7 8 2
1 7 15 1
1 8 9 1
1 9 16 1
1 11 46 1
1 16 31 1
1 17 18 1
1 17 25 1
1 17 26 1
1 18 19 2
1 18 23 1
1 19 20 1
1 19 27 1
1 20 21 2
1 20 28 1
1 21 22 1
1 21 29 1
1 22 23 2
1 22 30 1
1 23 24 1
1 24 31 1
1 32 33 1
1 32 40 1
1 32 41 1
1 33 34 2
1 33 38 1
1 34 35 1
1 34 42 1
1 35 36 2
1 35 43 1
1 36 37 1
1 36 44 1
1 37 38 2
1 37 45 1
1 38 39 1
1 39 46 1
@<TRIPOS>SUBSTRUCTURE
1 RES1 46

