@<TRIPOS>MOLECULE
/Users/abdulahmed/Documents/GitHub/HER-metal-complex-ligands/Runs//ni_oct_2_2aminobenzethiol_3_s_1/ni_oct_2_2aminobenzethiol_3_s_1_conf_1
46	51	1
SMALL
PartialCharges
****
Generated from molSimplify

@<TRIPOS>ATOM
1 Ni1	0.0  0.0  0.0 Ni	1 RES1 0.0
2 N1	0.0  2.14  0.0 N.pl3	1 RES1 0.0
3 C1	1.326776  2.618513  0.003704 C.ar	1 RES1 0.0
4 C2	1.561007  3.988285  -0.161735 C.ar	1 RES1 0.0
5 C3	2.863287  4.482619  -0.267345 C.ar	1 RES1 0.0
6 C4	3.9459  3.606656  -0.250185 C.ar	1 RES1 0.0
7 C5	3.725958  2.232928  -0.152934 C.ar	1 RES1 0.0
8 C6	2.421838  1.734518  -0.054878 C.ar	1 RES1 0.0
9 S1	2.175164  -0.035164  -0.0 S.3	1 RES1 0.0
10 H1	-0.069778  1.23487  0.461306 H	1 RES1 0.0
11 H2	-0.665103  2.80754  0.37847 H	1 RES1 0.0
12 H3	0.727585  4.68453  -0.205585 H	1 RES1 0.0
13 H4	3.030102  5.551417  -0.374837 H	1 RES1 0.0
14 H5	4.959419  3.990311  -0.334312 H	1 RES1 0.0
15 H6	4.575719  1.55488  -0.170449 H	1 RES1 0.0
16 H7	1.224603  -0.049519  -0.947271 H	1 RES1 0.0
17 N2	0.0  -2.14  0.0 N.pl3	1 RES1 0.0
18 C7	0.003704  -2.618513  1.326776 C.ar	1 RES1 0.0
19 C8	-0.161735  -3.988285  1.561007 C.ar	1 RES1 0.0
20 C9	-0.267345  -4.482619  2.863287 C.ar	1 RES1 0.0
21 C10	-0.250185  -3.606656  3.9459 C.ar	1 RES1 0.0
22 C11	-0.152934  -2.232928  3.725958 C.ar	1 RES1 0.0
23 C12	-0.054878  -1.734518  2.421838 C.ar	1 RES1 0.0
24 S2	-0.0  0.035164  2.175164 S.3	1 RES1 0.0
25 H8	0.461306  -1.23487  -0.069778 H	1 RES1 0.0
26 H9	0.37847  -2.80754  -0.665103 H	1 RES1 0.0
27 H10	-0.205585  -4.68453  0.727585 H	1 RES1 0.0
28 H11	-0.374837  -5.551417  3.030102 H	1 RES1 0.0
29 H12	-0.334312  -3.990311  4.959419 H	1 RES1 0.0
30 H13	-0.170449  -1.55488  4.575719 H	1 RES1 0.0
31 H14	-0.947271  0.049519  1.224603 H	1 RES1 0.0
32 N3	-2.14  0.0  0.0 N.pl3	1 RES1 0.0
33 C13	-2.618513  0.003704  -1.326776 C.ar	1 RES1 0.0
34 C14	-3.988285  -0.161735  -1.561007 C.ar	1 RES1 0.0
35 C15	-4.482619  -0.267345  -2.863287 C.ar	1 RES1 0.0
36 C16	-3.606656  -0.250185  -3.9459 C.ar	1 RES1 0.0
37 C17	-2.232928  -0.152934  -3.725958 C.ar	1 RES1 0.0
38 C18	-1.734518  -0.054878  -2.421838 C.ar	1 RES1 0.0
39 S3	0.035164  -0.0  -2.175164 S.3	1 RES1 0.0
40 H15	-1.23487  0.461306  0.069778 H	1 RES1 0.0
41 H16	-2.80754  0.37847  0.665103 H	1 RES1 0.0
42 H17	-4.68453  -0.205585  -0.727585 H	1 RES1 0.0
43 H18	-5.551417  -0.374837  -3.030102 H	1 RES1 0.0
44 H19	-3.990311  -0.334312  -4.959419 H	1 RES1 0.0
45 H20	-1.55488  -0.170449  -4.575719 H	1 RES1 0.0
46 H21	0.049519  -0.947271  -1.224603 H	1 RES1 0.0
@<TRIPOS>BOND
1 1 2 1
1 1 9 1
1 1 17 1
1 1 24 1
1 1 32 1
1 1 39 1
1 2 3 1
1 2 10 1
1 2 11 1
1 3 4 2
1 3 8 1
1 4 5 1
1 4 12 1
1 5 6 2
1 5 13 1
1 6 7 1
1 6 14 1
1 7 8 2
1 7 15 1
1 8 9 1
1 9 16 1
1 17 18 1
1 17 25 1
1 17 26 1
1 18 19 2
1 18 23 1
1 19 20 1
1 19 27 1
1 20 21 2
1 20 28 1
1 21 22 1
1 21 29 1
1 22 23 2
1 22 30 1
1 23 24 1
1 24 31 1
1 32 33 1
1 32 40 1
1 32 41 1
1 33 34 2
1 33 38 1
1 34 35 1
1 34 42 1
1 35 36 2
1 35 43 1
1 36 37 1
1 36 44 1
1 37 38 2
1 37 45 1
1 38 39 1
1 39 46 1
@<TRIPOS>SUBSTRUCTURE
1 RES1 46

