@<TRIPOS>MOLECULE
/Users/abdulahmed/Documents/GitHub/HER-metal-complex-ligands/Runs//5_chloropyridine_2_thiol_hydride/5_chloropyridine_2_thiol_hydride
25	28	3
SMALL
PartialCharges
****
Generated from molSimplify

@<TRIPOS>ATOM
1 Ni1	0.0  0.0  0.0 Ni	1 RES1 0.0
2 S1	0.0  2.23  -0.0 S.3	1 RES1 0.0
3 C1	1.616715  1.763837  -0.004324 C.3	1 RES1 0.0
4 C2	2.645228  2.693244  -0.011683 C.2	1 RES1 0.0
5 C3	3.956019  2.221326  -0.014836 C.2	1 RES1 0.0
6 C4	4.171892  0.849419  -0.010491 C.2	1 RES1 0.0
7 Cl1	5.768997  0.214613  -0.014108 Cl	1 RES1 0.0
8 C5	3.068601  0.008423  -0.003184 C.2	1 RES1 0.0
9 N1	1.78776  0.44224  -0.0 N.pl3	1 RES1 0.0
10 H1	2.434444  3.756716  -0.014887 H	1 RES1 0.0
11 H2	4.782374  2.921757  -0.020574 H	1 RES1 0.0
12 H3	3.176903  -1.070031  0.000462 H	1 RES1 0.0
13 S2	0.0  -2.23  0.0 S.3	1 RES1 0.0
14 C6	-0.004324  -1.763837  1.616715 C.3	1 RES1 0.0
15 C7	-0.011683  -2.693244  2.645228 C.2	1 RES1 0.0
16 C8	-0.014836  -2.221326  3.956019 C.2	1 RES1 0.0
17 C9	-0.010491  -0.849419  4.171892 C.2	1 RES1 0.0
18 Cl2	-0.014108  -0.214613  5.768997 Cl	1 RES1 0.0
19 C10	-0.003184  -0.008423  3.068601 C.2	1 RES1 0.0
20 N2	-0.0  -0.44224  1.78776 N.pl3	1 RES1 0.0
21 H4	-0.014887  -3.756716  2.434444 H	1 RES1 0.0
22 H5	-0.020574  -2.921757  4.782374 H	1 RES1 0.0
23 H6	0.000462  1.070031  3.176903 H	1 RES1 0.0
24 H7	-1.58  0.0  0.0 H	2 RES2 0.0
25 H8	0.0  0.0  -1.58 H	3 RES3 0.0
@<TRIPOS>BOND
1 1 2 1
1 1 3 1
1 1 9 1
1 1 13 1
1 1 14 1
1 1 20 1
1 2 3 1
1 3 4 1
1 3 9 1
1 4 5 2
1 4 10 1
1 5 6 1
1 5 11 1
1 6 7 1
1 6 8 2
1 8 9 1
1 8 12 1
1 13 14 1
1 14 15 1
1 14 20 1
1 15 16 2
1 15 21 1
1 16 17 1
1 16 22 1
1 17 18 1
1 17 19 2
1 19 20 1
1 19 23 1
@<TRIPOS>SUBSTRUCTURE
1 RES1 23
2 RES2 1
3 RES3 1

