@<TRIPOS>MOLECULE
/Users/abdulahmed/Documents/GitHub/HER-metal-complex-ligands/Runs//ni_oct_2_ethylpiperidine3carboxylate_6_s_1/badjob_ni_oct_2_ethylpiperidine3carboxylate_6_s_1_conf_1
157	276	1
SMALL
PartialCharges
****
Generated from molSimplify

@<TRIPOS>ATOM
1 Ni1	0.0  0.0  0.0 Ni	1 RES1 0.0
2 C1	-2.502654  5.707042  0.009073 C.3	1 RES1 0.0
3 C2	-2.903356  5.288691  -1.39621 C.3	1 RES1 0.0
4 O1	-3.027366  3.875218  -1.452037 O.3	1 RES1 0.0
5 C3	-1.909103  3.05209  -1.154806 C.3	1 RES1 0.0
6 O2	-0.797268  3.580448  -0.838818 O.3	1 RES1 0.0
7 C4	-2.041846  1.539077  -1.214564 C.3	1 RES1 0.0
8 C5	-2.643379  0.926511  0.048326 C.3	1 RES1 0.0
9 C6	-2.003891  1.54428  1.290482 C.3	1 RES1 0.0
10 C7	-0.48846  1.470082  1.20388 C.3	1 RES1 0.0
11 N1	-0.0  2.14  0.0 N.3	1 RES1 0.0
12 C8	-0.530927  1.457304  -1.186911 C.3	1 RES1 0.0
13 H1	-3.251088  5.38696  0.703548 H	1 RES1 0.0
14 H2	-2.409211  6.772123  0.05114 H	1 RES1 0.0
15 H3	-1.565591  5.256539  0.261778 H	1 RES1 0.0
16 H4	-3.840419  5.739196  -1.648914 H	1 RES1 0.0
17 H5	-2.154923  5.608773  -2.090684 H	1 RES1 0.0
18 H6	-2.635844  1.075212  -1.974101 H	1 RES1 0.0
19 H7	-3.695419  1.12112  0.063791 H	1 RES1 0.0
20 H8	-2.467062  -0.128862  0.047775 H	1 RES1 0.0
21 H9	-2.296233  2.571559  1.354774 H	1 RES1 0.0
22 H10	-2.333233  1.011197  2.157809 H	1 RES1 0.0
23 H11	-0.073321  1.960404  2.059534 H	1 RES1 0.0
24 H12	-0.189112  0.443112  1.178914 H	1 RES1 0.0
25 H13	1.019387  2.108978  -0.016969 H	1 RES1 0.0
26 H14	-0.240876  0.427943  -1.152477 H	1 RES1 0.0
27 H15	-0.137056  1.92258  -2.066276 H	1 RES1 0.0
28 C9	5.707042  -0.681104  -2.408207 C.3	1 RES1 0.0
29 C10	5.288691  -2.142397  -2.406038 C.3	1 RES1 0.0
30 O3	3.875218  -2.230243  -2.509856 O.3	1 RES1 0.0
31 C11	3.05209  -1.636291  -1.51684 C.2	1 RES1 0.0
32 O4	3.580448  -1.026081  -0.535174 O.2	1 RES1 0.0
33 C12	1.539077  -1.730323  -1.627969 C.3	1 RES1 0.0
34 C13	0.926511  -0.68216  -2.5543 C.3	1 RES1 0.0
35 C14	1.54428  0.688143  -2.281969 C.3	1 RES1 0.0
36 C15	1.470082  1.022606  -0.801372 C.3	1 RES1 0.0
37 N2	2.14  -0.0  0.0 N.4	1 RES1 0.0
38 C16	1.457304  -1.287275  -0.183203 C.3	1 RES1 0.0
39 H16	5.38696  -0.219827  -3.31907 H	1 RES1 0.0
40 H17	6.772123  -0.61491  -2.329978 H	1 RES1 0.0
41 H18	5.256539  -0.179899  -1.577099 H	1 RES1 0.0
42 H19	5.739196  -2.643601  -3.237145 H	1 RES1 0.0
43 H20	5.608773  -2.603672  -1.495174 H	1 RES1 0.0
44 H21	1.075212  -2.624165  -1.9896 H	1 RES1 0.0
45 H22	1.12112  -0.957276  -3.569848 H	1 RES1 0.0
46 H23	-0.128862  -0.63409  -2.384661 H	1 RES1 0.0
47 H24	2.571559  0.669365  -2.580707 H	1 RES1 0.0
48 H25	1.011197  1.431093  -2.83762 H	1 RES1 0.0
49 H26	1.960404  1.959541  -0.638165 H	1 RES1 0.0
50 H27	0.443112  1.081119  -0.506739 H	1 RES1 0.0
51 H28	2.108978  0.264669  0.984575 H	1 RES1 0.0
52 H29	0.427943  -1.174226  0.086121 H	1 RES1 0.0
53 H30	1.92258  -2.02401  0.437797 H	1 RES1 0.0
54 C17	-1.745016  -5.707042  1.793956 C.3	1 RES1 0.0
55 C18	-1.012491  -5.288691  3.058389 C.3	1 RES1 0.0
56 O5	-1.058477  -3.875218  3.186375 O.3	1 RES1 0.0
57 C19	-0.495477  -3.05209  2.175489 C.3	1 RES1 0.0
58 O6	0.049566  -3.580448  1.156199 O.3	1 RES1 0.0
59 C20	-0.544701  -1.539077  2.312488 C.3	1 RES1 0.0
60 C21	-1.871008  -0.926511  1.867918 C.3	1 RES1 0.0
61 C22	-2.320315  -1.54428  0.545035 C.3	1 RES1 0.0
62 C23	-1.205312  -1.470082  -0.484916 C.3	1 RES1 0.0
63 N3	0.0  -2.14  0.0 N.3	1 RES1 0.0
64 C24	0.484979  -1.457304  1.206414 C.3	1 RES1 0.0
65 H31	-2.764485  -5.38696  1.849911 H	1 RES1 0.0
66 H32	-1.710365  -6.772123  1.697517 H	1 RES1 0.0
67 H33	-1.275858  -5.256539  0.944346 H	1 RES1 0.0
68 H34	-1.481649  -5.739196  3.907998 H	1 RES1 0.0
69 H35	0.006978  -5.608773  3.002433 H	1 RES1 0.0
70 H36	-0.410962  -1.075212  3.267393 H	1 RES1 0.0
71 H37	-2.612941  -1.12112  2.613949 H	1 RES1 0.0
72 H38	-1.748132  0.128862  1.741469 H	1 RES1 0.0
73 H39	-2.56964  -2.571559  0.710667 H	1 RES1 0.0
74 H40	-3.172997  -1.011197  0.179447 H	1 RES1 0.0
75 H41	-1.532438  -1.960404  -1.37793 H	1 RES1 0.0
76 H42	-0.979408  -0.443112  -0.682907 H	1 RES1 0.0
77 H43	0.720332  -2.108978  -0.721498 H	1 RES1 0.0
78 H44	0.661696  -0.427943  0.973849 H	1 RES1 0.0
79 H45	1.391148  -1.92258  1.533946 H	1 RES1 0.0
80 C25	-5.707042  1.922976  1.601725 C.3	1 RES1 0.0
81 C26	-5.288691  1.326633  2.935801 C.3	1 RES1 0.0
82 O7	-3.875218  1.385746  3.058279 O.3	1 RES1 0.0
83 C27	-3.05209  0.720163  2.11178 C.3	1 RES1 0.0
84 O8	-3.580448  0.071561  1.155046 O.3	1 RES1 0.0
85 C28	-1.539077  0.783438  2.242884 C.3	1 RES1 0.0
86 C29	-0.926511  2.056009  1.662111 C.3	1 RES1 0.0
87 C30	-1.54428  2.364575  0.29951 C.3	1 RES1 0.0
88 C31	-1.470082  1.148021  -0.608249 C.3	1 RES1 0.0
89 N4	-2.14  0.0  0.0 N.3	1 RES1 0.0
90 C32	-1.457304  -0.356218  1.250499 C.3	1 RES1 0.0
91 H46	-5.38696  2.942709  1.55081 H	1 RES1 0.0
92 H47	-6.772123  1.878435  1.509436 H	1 RES1 0.0
93 H48	-5.256539  1.36758  0.805809 H	1 RES1 0.0
94 H49	-5.739196  1.88203  3.731715 H	1 RES1 0.0
95 H50	-5.608773  0.3069  2.986715 H	1 RES1 0.0
96 H51	-1.075212  0.750246  3.206537 H	1 RES1 0.0
97 H52	-1.12112  2.871859  2.326503 H	1 RES1 0.0
98 H53	0.128862  1.920588  1.549199 H	1 RES1 0.0
99 H54	-2.571559  2.629849  0.438173 H	1 RES1 0.0
100 H55	-1.011197  3.174373  -0.153204 H	1 RES1 0.0
101 H56	-1.960404  1.38001  -1.530565 H	1 RES1 0.0
102 H57	-0.443112  0.90266  -0.781542 H	1 RES1 0.0
103 H58	-2.108978  -0.791803  -0.64225 H	1 RES1 0.0
104 H59	-0.427943  -0.556276  1.03768 H	1 RES1 0.0
105 H60	-1.92258  -1.223186  1.670957 H	1 RES1 0.0
106 C33	1.977704  -1.533638  5.707042 C.3	1 RES1 0.0
107 C34	1.428283  -2.887713  5.288691 C.3	1 RES1 0.0
108 O9	1.491634  -3.008054  3.875218 O.3	1 RES1 0.0
109 C35	0.793424  -2.085361  3.05209 C.3	1 RES1 0.0
110 O10	0.111828  -1.151845  3.580448 O.3	1 RES1 0.0
111 C36	0.861236  -2.214176  1.539077 C.3	1 RES1 0.0
112 C37	2.112764  -1.589345  0.926511 C.3	1 RES1 0.0
113 C38	2.373588  -0.216805  1.54428 C.3	1 RES1 0.0
114 C39	1.126094  0.647944  1.470082 C.3	1 RES1 0.0
115 N5	0.0  0.0  2.14 N.3	1 RES1 0.0
116 C40	-0.312359  -1.26217  1.457304 C.3	1 RES1 0.0
117 H61	2.995039  -1.447166  5.38696 H	1 RES1 0.0
118 H62	1.929969  -1.44296  6.772123 H	1 RES1 0.0
119 H63	1.394869  -0.757591  5.256539 H	1 RES1 0.0
120 H64	2.011118  -3.66376  5.739196 H	1 RES1 0.0
121 H65	0.410948  -2.974185  5.608773 H	1 RES1 0.0
122 H66	0.861696  -3.1784  1.075212 H	1 RES1 0.0
123 H67	2.951304  -2.224859  1.12112 H	1 RES1 0.0
124 H68	1.973485  -1.481228  -0.128862 H	1 RES1 0.0
125 H69	2.643539  -0.346126  2.571559 H	1 RES1 0.0
126 H70	3.167092  0.263895  1.011197 H	1 RES1 0.0
127 H71	1.325753  1.577794  1.960404 H	1 RES1 0.0
128 H72	0.874834  0.812568  0.443112 H	1 RES1 0.0
129 H73	-0.813735  0.614225  2.108978 H	1 RES1 0.0
130 H74	-0.519723  -1.056462  0.427943 H	1 RES1 0.0
131 H75	-1.164125  -1.712628  1.92258 H	1 RES1 0.0
132 C41	-1.078971  -2.258137  -5.707042 C.3	1 RES1 0.0
133 C42	0.01975  -3.221567  -5.288691 C.3	1 RES1 0.0
134 O11	0.017151  -3.357539  -3.875218 O.3	1 RES1 0.0
135 C43	0.226952  -2.219627  -3.05209 C.3	1 RES1 0.0
136 O12	0.41705  -1.079501  -3.580448 O.3	1 RES1 0.0
137 C44	0.22417  -2.365174  -1.539077 C.3	1 RES1 0.0
138 C45	-1.174659  -2.368536  -0.926511 C.3	1 RES1 0.0
139 C46	-2.023772  -1.259076  -1.54428 C.3	1 RES1 0.0
140 C47	-1.297114  0.073591  -1.470082 C.3	1 RES1 0.0
141 N6	0.0  -0.0  -2.14 N.3	1 RES1 0.0
142 C48	0.845628  -0.987701  -1.457304 C.3	1 RES1 0.0
143 H76	-2.026891  -2.637473  -5.38696 H	1 RES1 0.0
144 H77	-1.077013  -2.15568  -6.772123 H	1 RES1 0.0
145 H78	-0.906451  -1.303054  -5.256539 H	1 RES1 0.0
146 H79	-0.15277  -4.176649  -5.739196 H	1 RES1 0.0
147 H80	0.967669  -2.84223  -5.608773 H	1 RES1 0.0
148 H81	0.656531  -3.227029  -1.075212 H	1 RES1 0.0
149 H82	-1.638756  -3.312804  -1.12112 H	1 RES1 0.0
150 H83	-1.098723  -2.209409  0.128862 H	1 RES1 0.0
151 H84	-2.206962  -1.4958  -2.571559 H	1 RES1 0.0
152 H85	-2.948613  -1.185661  -1.011197 H	1 RES1 0.0
153 H86	-1.892876  0.814909  -1.960404 H	1 RES1 0.0
154 H87	-1.146472  0.333475  -0.443112 H	1 RES1 0.0
155 H88	0.451486  0.91411  -2.108978 H	1 RES1 0.0
156 H89	0.938604  -0.710806  -0.427943 H	1 RES1 0.0
157 H90	1.80896  -1.007942  -1.92258 H	1 RES1 0.0
@<TRIPOS>BOND
1 1 12 1
1 1 38 1
1 1 64 1
1 1 90 1
1 1 142 1
1 2 3 1
1 2 13 1
1 2 14 1
1 2 15 1
1 3 4 1
1 3 16 1
1 3 17 1
1 4 5 1
1 5 6 1
1 5 7 1
1 5 87 1
1 6 100 1
1 7 8 1
1 7 12 1
1 7 18 1
1 7 88 1
1 7 101 1
1 7 140 1
1 7 153 1
1 8 9 1
1 8 19 1
1 8 20 1
1 8 84 1
1 8 88 1
1 8 89 1
1 9 10 1
1 9 21 1
1 9 22 1
1 9 83 1
1 9 85 1
1 9 86 1
1 9 87 1
1 10 11 1
1 10 23 1
1 10 24 1
1 10 85 1
1 10 86 1
1 10 87 1
1 10 98 1
1 10 129 1
1 11 12 1
1 11 25 1
1 11 50 1
1 11 87 1
1 12 26 1
1 12 27 1
1 12 50 1
1 12 88 1
1 12 102 1
1 12 140 1
1 18 153 1
1 20 89 1
1 22 83 1
1 22 85 1
1 23 86 1
1 23 98 1
1 24 115 1
1 26 102 1
1 26 140 1
1 26 141 1
1 28 29 1
1 28 39 1
1 28 40 1
1 28 41 1
1 29 30 1
1 29 42 1
1 29 43 1
1 30 31 1
1 31 32 2
1 31 33 1
1 33 34 1
1 33 38 1
1 33 44 1
1 33 77 1
1 33 137 1
1 33 142 1
1 33 157 1
1 34 35 1
1 34 45 1
1 34 46 1
1 34 135 1
1 34 136 1
1 34 141 1
1 34 142 1
1 34 157 1
1 35 36 1
1 35 47 1
1 35 48 1
1 35 141 1
1 35 155 1
1 36 37 1
1 36 49 1
1 36 50 1
1 37 38 1
1 37 51 1
1 37 113 1
1 38 52 1
1 38 53 1
1 38 63 1
1 38 64 1
1 38 77 1
1 38 112 1
1 38 124 1
1 38 142 1
1 38 156 1
1 44 137 1
1 45 136 1
1 46 141 1
1 51 113 1
1 51 114 1
1 52 63 1
1 52 64 1
1 53 112 1
1 53 124 1
1 54 55 1
1 54 65 1
1 54 66 1
1 54 67 1
1 55 56 1
1 55 68 1
1 55 69 1
1 56 57 1
1 57 58 1
1 57 59 1
1 57 111 1
1 58 111 1
1 58 122 1
1 59 60 1
1 59 64 1
1 59 70 1
1 59 109 1
1 59 110 1
1 59 111 1
1 59 115 1
1 59 116 1
1 59 131 1
1 60 61 1
1 60 71 1
1 60 72 1
1 60 90 1
1 60 105 1
1 60 116 1
1 60 131 1
1 61 62 1
1 61 73 1
1 61 74 1
1 61 89 1
1 61 90 1
1 61 105 1
1 62 63 1
1 62 75 1
1 62 76 1
1 62 103 1
1 62 130 1
1 62 138 1
1 62 139 1
1 62 150 1
1 63 64 1
1 63 77 1
1 63 116 1
1 63 130 1
1 63 137 1
1 63 138 1
1 63 150 1
1 64 78 1
1 64 79 1
1 64 104 1
1 64 111 1
1 64 112 1
1 64 116 1
1 70 110 1
1 72 85 1
1 72 90 1
1 75 138 1
1 75 139 1
1 76 140 1
1 76 154 1
1 77 137 1
1 78 114 1
1 79 111 1
1 79 112 1
1 80 81 1
1 80 91 1
1 80 92 1
1 80 93 1
1 81 82 1
1 81 94 1
1 81 95 1
1 82 83 1
1 83 84 1
1 83 85 1
1 85 86 1
1 85 90 1
1 85 96 1
1 85 115 1
1 85 129 1
1 86 87 1
1 86 97 1
1 86 98 1
1 87 88 1
1 87 99 1
1 87 100 1
1 88 89 1
1 88 101 1
1 88 102 1
1 88 140 1
1 88 154 1
1 89 90 1
1 89 103 1
1 89 140 1
1 89 154 1
1 90 104 1
1 90 105 1
1 90 115 1
1 90 116 1
1 101 153 1
1 103 139 1
1 104 116 1
1 104 130 1
1 106 107 1
1 106 117 1
1 106 118 1
1 106 119 1
1 107 108 1
1 107 120 1
1 107 121 1
1 108 109 1
1 109 110 1
1 109 111 1
1 111 112 1
1 111 116 1
1 111 122 1
1 112 113 1
1 112 123 1
1 112 124 1
1 113 114 1
1 113 125 1
1 113 126 1
1 114 115 1
1 114 127 1
1 114 128 1
1 115 116 1
1 115 129 1
1 116 130 1
1 116 131 1
1 132 133 1
1 132 143 1
1 132 144 1
1 132 145 1
1 133 134 1
1 133 146 1
1 133 147 1
1 134 135 1
1 135 136 1
1 135 137 1
1 137 138 1
1 137 142 1
1 137 148 1
1 138 139 1
1 138 149 1
1 138 150 1
1 139 140 1
1 139 151 1
1 139 152 1
1 140 141 1
1 140 153 1
1 140 154 1
1 141 142 1
1 141 155 1
1 142 156 1
1 142 157 1
@<TRIPOS>SUBSTRUCTURE
1 RES1 157

