@<TRIPOS>MOLECULE
/home/jovyan/shared-scratch-kabdelma-pvc/kabdelma/HER-metal-complex-ligands/Runs//ni_thd_2_N-N-dimethyl-p-toluidine_4_s_1/badjob_ni_thd_2_N-N-dimethyl-p-toluidine_4_s_1_conf_1
93	123	1
SMALL
PartialCharges
****
Generated from molSimplify

@<TRIPOS>ATOM
1 Ni1	0.0  0.0  0.0 Ni	1 RES1 0.0
2 C1	-2.630003  1.309183  -0.454794 C.3	1 RES1 0.0
3 N1	-2.14  0.0  -0.0 N.3	1 RES1 0.0
4 C2	-1.294873  -0.092377  1.199219 C.3	1 RES1 0.0
5 C3	-2.495124  -1.216806  -0.744426 C.3	1 RES1 0.0
6 C4	-3.816853  -1.335554  -1.126095 C.2	1 RES1 0.0
7 C5	-4.234144  -2.496993  -1.752894 C.2	1 RES1 0.0
8 C6	-3.367969  -3.554768  -1.992255 C.2	1 RES1 0.0
9 C7	-3.843757  -4.789666  -2.701102 C.3	1 RES1 0.0
10 C8	-2.038202  -3.401879  -1.584152 C.2	1 RES1 0.0
11 C9	-1.601287  -2.26504  -0.965517 C.3	1 RES1 0.0
12 H1	-2.273335  2.072343  0.20496 H	1 RES1 0.0
13 H2	-2.27334  1.498967  -1.445588 H	1 RES1 0.0
14 H3	-3.700003  1.309183  -0.454794 H	1 RES1 0.0
15 H4	-0.349766  -0.520315  0.937413 H	1 RES1 0.0
16 H5	-1.776431  -0.710097  1.928207 H	1 RES1 0.0
17 H6	-1.143263  0.886043  1.604939 H	1 RES1 0.0
18 H7	-4.508771  -0.54089  -0.939924 H	1 RES1 0.0
19 H8	-5.254958  -2.581893  -2.062136 H	1 RES1 0.0
20 H9	-3.685481  -5.643274  -2.075641 H	1 RES1 0.0
21 H10	-3.297844  -4.909885  -3.613477 H	1 RES1 0.0
22 H11	-4.887053  -4.695986  -2.919407 H	1 RES1 0.0
23 H12	-1.344708  -4.197181  -1.761522 H	1 RES1 0.0
24 H13	-0.581569  -2.179129  -0.652954 H	1 RES1 0.0
25 C10	-1.628154  0.87175  -0.105457 C.3	1 RES1 0.0
26 N2	-0.713377  2.017596  0.0 N.pl3	1 RES1 0.0
27 C11	0.624693  1.838742  0.58179 C.3	1 RES1 0.0
28 C12	-1.13667  3.342296  -0.476333 C.ar	1 RES1 0.0
29 C13	-1.766616  3.377224  -1.70462 C.ar	1 RES1 0.0
30 C14	-2.111261  4.602252  -2.249116 C.ar	1 RES1 0.0
31 C15	-1.825224  5.798701  -1.606363 C.ar	1 RES1 0.0
32 C16	-2.23856  7.110241  -2.208714 C.3	1 RES1 0.0
33 C17	-1.178704  5.724491  -0.36753 C.ar	1 RES1 0.0
34 C18	-0.82994  4.528062  0.19187 C.ar	1 RES1 0.0
35 H14	-1.152228  -0.001994  0.2882 H	1 RES1 0.0
36 H15	-2.51907  1.074179  0.451491 H	1 RES1 0.0
37 H16	-1.879023  0.709014  -1.132823 H	1 RES1 0.0
38 H17	0.726695  2.467362  1.441635 H	1 RES1 0.0
39 H18	1.366741  2.102195  -0.14268 H	1 RES1 0.0
40 H19	0.754613  0.816481  0.869895 H	1 RES1 0.0
41 H20	-1.985269  2.470031  -2.228158 H	1 RES1 0.0
42 H21	-2.613184  4.627623  -3.193748 H	1 RES1 0.0
43 H22	-1.374553  7.724897  -2.352212 H	1 RES1 0.0
44 H23	-2.92287  7.604738  -1.551377 H	1 RES1 0.0
45 H24	-2.712854  6.935862  -3.151867 H	1 RES1 0.0
46 H25	-0.951326  6.629631  0.155845 H	1 RES1 0.0
47 H26	-0.325482  4.500492  1.135089 H	1 RES1 0.0
48 C19	-1.573851  -1.151541  0.564037 C.3	1 RES1 0.0
49 N3	-0.713375  -1.008786  1.747297 N.pl3	1 RES1 0.0
50 C20	0.605424  -0.371153  1.624441 C.3	1 RES1 0.0
51 C21	-1.171699  -1.503663  3.053412 C.ar	1 RES1 0.0
52 C22	-2.472904  -1.198064  3.400132 C.ar	1 RES1 0.0
53 C23	-2.93761  -1.559204  4.652959 C.ar	1 RES1 0.0
54 C24	-2.128747  -2.202541  5.579403 C.ar	1 RES1 0.0
55 C25	-2.670838  -2.608035  6.919374 C.3	1 RES1 0.0
56 C26	-0.813678  -2.488471  5.195942 C.ar	1 RES1 0.0
57 C27	-0.331856  -2.144314  3.964922 C.ar	1 RES1 0.0
58 H27	-1.078506  -0.737461  -0.289233 H	1 RES1 0.0
59 H28	-1.774275  -2.188391  0.391778 H	1 RES1 0.0
60 H29	-2.495105  -0.632683  0.728282 H	1 RES1 0.0
61 H30	1.36549  -1.064055  1.919545 H	1 RES1 0.0
62 H31	0.644659  0.491654  2.256046 H	1 RES1 0.0
63 H32	0.766063  -0.07693  0.608308 H	1 RES1 0.0
64 H33	-3.112992  -0.689222  2.71001 H	1 RES1 0.0
65 H34	-3.950662  -1.335739  4.915042 H	1 RES1 0.0
66 H35	-2.090715  -2.149145  7.692535 H	1 RES1 0.0
67 H36	-2.618517  -3.672184  7.018116 H	1 RES1 0.0
68 H37	-3.689649  -2.291784  7.002507 H	1 RES1 0.0
69 H38	-0.167901  -2.990389  5.885833 H	1 RES1 0.0
70 H39	0.681677  -2.364328  3.701778 H	1 RES1 0.0
71 C28	-1.597414  0.149007  -1.550089 C.3	1 RES1 0.0
72 N4	-0.713375  -1.008786  -1.747297 N.pl3	1 RES1 0.0
73 C29	0.361185  -1.285717  -0.783176 C.3	1 RES1 0.0
74 C30	-0.903897  -1.889648  -2.908625 C.ar	1 RES1 0.0
75 C31	-2.204544  -2.260247  -3.187398 C.ar	1 RES1 0.0
76 C32	-2.44282  -3.157841  -4.213799 C.ar	1 RES1 0.0
77 C33	-1.41167  -3.712152  -4.959393 C.ar	1 RES1 0.0
78 C34	-1.704302  -4.660258  -6.086013 C.3	1 RES1 0.0
79 C35	-0.106332  -3.319578  -4.642883 C.ar	1 RES1 0.0
80 C36	0.154888  -2.434037  -3.636112 C.ar	1 RES1 0.0
81 H40	-1.310664  0.669207  -0.660108 H	1 RES1 0.0
82 H41	-1.51592  0.807112  -2.389825 H	1 RES1 0.0
83 H42	-2.609144  -0.186549  -1.456789 H	1 RES1 0.0
84 H43	1.30591  -1.259952  -1.284903 H	1 RES1 0.0
85 H44	0.212684  -2.253612  -0.351866 H	1 RES1 0.0
86 H45	0.347122  -0.545164  -0.010982 H	1 RES1 0.0
87 H46	-3.016821  -1.859179  -2.617967 H	1 RES1 0.0
88 H47	-3.452089  -3.432583  -4.439172 H	1 RES1 0.0
89 H48	-1.211065  -5.592376  -5.904982 H	1 RES1 0.0
90 H49	-1.350405  -4.242074  -7.005132 H	1 RES1 0.0
91 H50	-2.760005  -4.822064  -6.150902 H	1 RES1 0.0
92 H51	0.709448  -3.724094  -5.204818 H	1 RES1 0.0
93 H52	1.163568  -2.160041  -3.407223 H	1 RES1 0.0
@<TRIPOS>BOND
1 1 4 1
1 1 25 1
1 1 27 1
1 1 50 1
1 1 73 1
1 2 3 1
1 2 12 1
1 2 13 1
1 2 14 1
1 2 25 1
1 2 36 1
1 2 37 1
1 3 4 1
1 3 5 1
1 3 25 1
1 3 35 1
1 3 36 1
1 3 48 1
1 3 60 1
1 3 71 1
1 3 81 1
1 4 15 1
1 4 16 1
1 4 17 1
1 4 25 1
1 4 35 1
1 4 48 1
1 4 49 1
1 5 6 1
1 5 11 1
1 5 48 1
1 5 83 1
1 6 7 2
1 6 18 1
1 7 8 1
1 7 19 1
1 8 9 1
1 8 10 2
1 9 20 1
1 9 21 1
1 9 22 1
1 10 11 1
1 10 23 1
1 11 24 1
1 11 72 1
1 15 49 1
1 15 50 1
1 16 49 1
1 24 73 1
1 25 26 1
1 25 35 1
1 25 36 1
1 25 37 1
1 25 71 1
1 25 81 1
1 26 27 1
1 26 28 1
1 27 38 1
1 27 39 1
1 27 40 1
1 28 29 2
1 28 34 1
1 29 30 1
1 29 41 1
1 30 31 2
1 30 42 1
1 31 32 1
1 31 33 1
1 32 43 1
1 32 44 1
1 32 45 1
1 33 34 2
1 33 46 1
1 34 47 1
1 35 48 1
1 37 71 1
1 37 81 1
1 48 49 1
1 48 58 1
1 48 59 1
1 48 60 1
1 49 50 1
1 49 51 1
1 50 61 1
1 50 62 1
1 50 63 1
1 51 52 2
1 51 57 1
1 52 53 1
1 52 64 1
1 53 54 2
1 53 65 1
1 54 55 1
1 54 56 1
1 55 66 1
1 55 67 1
1 55 68 1
1 56 57 2
1 56 69 1
1 57 70 1
1 71 72 1
1 71 81 1
1 71 82 1
1 71 83 1
1 72 73 1
1 72 74 1
1 73 84 1
1 73 85 1
1 73 86 1
1 74 75 2
1 74 80 1
1 75 76 1
1 75 87 1
1 76 77 2
1 76 88 1
1 77 78 1
1 77 79 1
1 78 89 1
1 78 90 1
1 78 91 1
1 79 80 2
1 79 92 1
1 80 93 1
@<TRIPOS>SUBSTRUCTURE
1 RES1 93

