@<TRIPOS>MOLECULE
/home/jovyan/shared-scratch-kabdelma-pvc/kabdelma/HER-metal-complex-ligands/Runs//ni_oct_2_3-Bromo-6-mercaptopyridine_3_s_1/ni_oct_2_3-Bromo-6-mercaptopyridine_3_s_1_conf_1
34	39	1
SMALL
PartialCharges
****
Generated from molSimplify

@<TRIPOS>ATOM
1 Ni1	0.0  0.0  0.0 Ni	1 RES1 0.0
2 C1	3.989499  2.205005  -0.00946 C.2	1 RES1 0.0
3 C2	2.739908  2.694412  -0.007649 C.2	1 RES1 0.0
4 C3	1.578338  1.752179  -0.002657 C.3	1 RES1 0.0
5 S1	-0.0  2.210052  -0.0 S.3	1 RES1 0.0
6 N1	1.76083  0.449222  -0.0 N.pl3	1 RES1 0.0
7 C4	3.057691  0.028067  -0.002087 C.2	1 RES1 0.0
8 C5	4.178565  0.775111  -0.006523 C.2	1 RES1 0.0
9 Br1	5.904043  0.08728  -0.009 Br	1 RES1 0.0
10 H1	4.847364  2.862234  -0.013056 H	1 RES1 0.0
11 H2	2.537983  3.756565  -0.009685 H	1 RES1 0.0
12 H3	3.222572  -1.049595  7.4e-05 H	1 RES1 0.0
13 C6	-0.00946  -2.205005  3.989499 C.2	1 RES1 0.0
14 C7	-0.007649  -2.694412  2.739908 C.2	1 RES1 0.0
15 C8	-0.002657  -1.752179  1.578338 C.3	1 RES1 0.0
16 S2	0.0  -2.210052  0.0 S.3	1 RES1 0.0
17 N2	-0.0  -0.449222  1.76083 N.pl3	1 RES1 0.0
18 C9	-0.002087  -0.028067  3.057691 C.2	1 RES1 0.0
19 C10	-0.006523  -0.775111  4.178565 C.2	1 RES1 0.0
20 Br2	-0.009  -0.08728  5.904043 Br	1 RES1 0.0
21 H4	-0.013056  -2.862234  4.847364 H	1 RES1 0.0
22 H5	-0.009685  -3.756565  2.537983 H	1 RES1 0.0
23 H6	7.4e-05  1.049595  3.222572 H	1 RES1 0.0
24 C11	-2.205005  -0.00946  -3.989499 C.2	1 RES1 0.0
25 C12	-2.694412  -0.007649  -2.739908 C.2	1 RES1 0.0
26 C13	-1.752179  -0.002657  -1.578338 C.3	1 RES1 0.0
27 S3	-2.210052  0.0  0.0 S.3	1 RES1 0.0
28 N3	-0.449222  0.0  -1.76083 N.pl3	1 RES1 0.0
29 C14	-0.028067  -0.002087  -3.057691 C.2	1 RES1 0.0
30 C15	-0.775111  -0.006523  -4.178565 C.2	1 RES1 0.0
31 Br3	-0.08728  -0.009  -5.904043 Br	1 RES1 0.0
32 H7	-2.862234  -0.013056  -4.847364 H	1 RES1 0.0
33 H8	-3.756565  -0.009685  -2.537983 H	1 RES1 0.0
34 H9	1.049595  7.4e-05  -3.222572 H	1 RES1 0.0
@<TRIPOS>BOND
1 1 5 1
1 1 6 1
1 1 16 1
1 1 17 1
1 1 27 1
1 1 28 1
1 2 3 2
1 2 8 1
1 2 10 1
1 3 4 1
1 3 11 1
1 4 5 1
1 4 6 1
1 6 7 1
1 7 8 2
1 7 12 1
1 8 9 1
1 13 14 2
1 13 19 1
1 13 21 1
1 14 15 1
1 14 22 1
1 15 16 1
1 15 17 1
1 17 18 1
1 18 19 2
1 18 23 1
1 19 20 1
1 24 25 2
1 24 30 1
1 24 32 1
1 25 26 1
1 25 33 1
1 26 27 1
1 26 28 1
1 28 29 1
1 29 30 2
1 29 34 1
1 30 31 1
@<TRIPOS>SUBSTRUCTURE
1 RES1 34

