@<TRIPOS>MOLECULE
/Users/abdulahmed/Documents/GitHub/HER-metal-complex-ligands/Runs//ni_oct_2_piperidine_5_hydride_1_s_1/badjob_ni_oct_2_piperidine_5_hydride_1_s_1_conf_1
87	106	2
SMALL
PartialCharges
****
Generated from molSimplify

@<TRIPOS>ATOM
1 Ni1	0.0  0.0  0.0 Ni	1 RES1 0.0
2 C1	-0.66147  3.353489  -2.559736 C.3	1 RES1 0.0
3 C2	-1.717094  2.740923  -1.641917 C.3	1 RES1 0.0
4 C3	-1.285751  2.822696  -0.193612 C.3	1 RES1 0.0
5 N1	0.0  2.14  0.0 N.4	1 RES1 0.0
6 C4	1.029056  2.809918  -0.793072 C.3	1 RES1 0.0
7 C5	0.706585  2.73572  -2.276326 C.3	1 RES1 0.0
8 H1	-0.92836  3.15888  -3.577477 H	1 RES1 0.0
9 H2	-0.614775  4.408862  -2.389714 H	1 RES1 0.0
10 H3	-2.629964  3.286833  -1.758325 H	1 RES1 0.0
11 H4	-1.859388  1.714282  -1.907738 H	1 RES1 0.0
12 H5	-1.174884  3.852057  0.076617 H	1 RES1 0.0
13 H6	-2.027486  2.35742  0.421405 H	1 RES1 0.0
14 H7	0.256694  2.171022  0.986684 H	1 RES1 0.0
15 H8	1.964641  2.319596  -0.622289 H	1 RES1 0.0
16 H9	1.085184  3.836888  -0.497975 H	1 RES1 0.0
17 H10	0.690224  1.708441  -2.575207 H	1 RES1 0.0
18 H11	1.454006  3.268803  -2.825948 H	1 RES1 0.0
19 C6	3.353489  -1.341405  2.27825 C.3	1 RES1 0.0
20 C7	2.740923  -2.10315  1.105016 C.3	1 RES1 0.0
21 C8	2.822696  -1.28931  -0.168289 C.3	1 RES1 0.0
22 N2	2.14  0.0  0.0 N.4	1 RES1 0.0
23 C9	2.809918  0.770592  1.045996 C.3	1 RES1 0.0
24 C10	2.73572  0.051772  2.382906 C.3	1 RES1 0.0
25 H12	3.15888  -1.878483  3.183001 H	1 RES1 0.0
26 H13	4.408862  -1.249654  2.127685 H	1 RES1 0.0
27 H14	3.286833  -3.012744  0.965294 H	1 RES1 0.0
28 H15	1.714282  -2.313202  1.321318 H	1 RES1 0.0
29 H16	3.852057  -1.108253  -0.397491 H	1 RES1 0.0
30 H17	2.35742  -1.83279  -0.963932 H	1 RES1 0.0
31 H18	2.171022  0.518717  -0.877707 H	1 RES1 0.0
32 H19	2.319596  1.717008  1.139711 H	1 RES1 0.0
33 H20	3.836888  0.905885  0.777801 H	1 RES1 0.0
34 H21	1.708441  -0.046337  2.665699 H	1 RES1 0.0
35 H22	3.268803  0.618743  3.117254 H	1 RES1 0.0
36 C11	-2.621137  -3.353489  0.34559 C.3	1 RES1 0.0
37 C12	-2.165593  -2.740923  -0.976989 C.3	1 RES1 0.0
38 C13	-0.661165  -2.822696  -1.119599 C.3	1 RES1 0.0
39 N3	-0.0  -2.14  0.0 N.4	1 RES1 0.0
40 C14	-0.349832  -2.809918  1.251214 C.3	1 RES1 0.0
41 C15	-1.845882  -2.73572  1.507861 C.3	1 RES1 0.0
42 H23	-3.664748  -3.15888  0.479386 H	1 RES1 0.0
43 H24	-2.446003  -4.408862  0.325193 H	1 RES1 0.0
44 H25	-2.615492  -3.286833  -1.77978 H	1 RES1 0.0
45 H26	-2.465363  -1.714282  -1.009343 H	1 RES1 0.0
46 H27	-0.369081  -3.852057  -1.118035 H	1 RES1 0.0
47 H28	-0.368789  -2.35742  -2.037714 H	1 RES1 0.0
48 H29	1.010997  -2.171022  -0.131616 H	1 RES1 0.0
49 H30	0.158991  -2.319596  2.054697 H	1 RES1 0.0
50 H31	-0.055197  -3.836888  1.192709 H	1 RES1 0.0
51 H32	-2.129128  -1.708441  1.604654 H	1 RES1 0.0
52 H33	-2.075493  -3.268803  2.406749 H	1 RES1 0.0
53 C16	-3.353489  0.66147  2.559736 C.3	1 RES1 0.0
54 C17	-2.740923  1.717094  1.641917 C.3	1 RES1 0.0
55 C18	-2.822696  1.285751  0.193612 C.3	1 RES1 0.0
56 N4	-2.14  0.0  0.0 N.4	1 RES1 0.0
57 C19	-2.809918  -1.029056  0.793072 C.3	1 RES1 0.0
58 C20	-2.73572  -0.706585  2.276326 C.3	1 RES1 0.0
59 H34	-3.15888  0.92836  3.577477 H	1 RES1 0.0
60 H35	-4.408862  0.614775  2.389714 H	1 RES1 0.0
61 H36	-3.286833  2.629964  1.758325 H	1 RES1 0.0
62 H37	-1.714282  1.859388  1.907738 H	1 RES1 0.0
63 H38	-3.852057  1.174884  -0.076617 H	1 RES1 0.0
64 H39	-2.35742  2.027486  -0.421405 H	1 RES1 0.0
65 H40	-2.171022  -0.256694  -0.986684 H	1 RES1 0.0
66 H41	-2.319596  -1.964641  0.622289 H	1 RES1 0.0
67 H42	-3.836888  -1.085184  0.497975 H	1 RES1 0.0
68 H43	-1.708441  -0.690224  2.575207 H	1 RES1 0.0
69 H44	-3.268803  -1.454006  2.825948 H	1 RES1 0.0
70 C21	1.917412  -1.820253  3.353489 C.3	1 RES1 0.0
71 C22	2.326262  -0.482503  2.740923 C.3	1 RES1 0.0
72 C23	1.192977  0.517151  2.822696 C.3	1 RES1 0.0
73 N5	0.0  0.0  2.14 N.4	1 RES1 0.0
74 C24	-0.452425  -1.21788  2.809918 C.3	1 RES1 0.0
75 C25	0.607051  -2.304867  2.73572 C.3	1 RES1 0.0
76 H45	2.683068  -2.541916  3.15888 H	1 RES1 0.0
77 H46	1.787714  -1.700811  4.408862 H	1 RES1 0.0
78 H47	3.162106  -0.097476  3.286833 H	1 RES1 0.0
79 H48	2.587797  -0.632528  1.714282 H	1 RES1 0.0
80 H49	0.955757  0.687569  3.852057 H	1 RES1 0.0
81 H50	1.496095  1.431776  2.35742 H	1 RES1 0.0
82 H51	-0.740552  0.700729  2.171022 H	1 RES1 0.0
83 H52	-1.336347  -1.568832  2.319596 H	1 RES1 0.0
84 H53	-0.656402  -0.997366  3.836888 H	1 RES1 0.0
85 H54	0.779309  -2.549662  1.708441 H	1 RES1 0.0
86 H55	0.264457  -3.167045  3.268803 H	1 RES1 0.0
87 H56	-0.0  0.0  -1.58 H	2 RES2 0.0
@<TRIPOS>BOND
1 1 5 1
1 1 22 1
1 1 39 1
1 1 56 1
1 1 73 1
1 2 3 1
1 2 7 1
1 2 8 1
1 2 9 1
1 3 4 1
1 3 10 1
1 3 11 1
1 4 5 1
1 4 12 1
1 4 13 1
1 5 6 1
1 5 14 1
1 6 7 1
1 6 15 1
1 6 16 1
1 7 17 1
1 7 18 1
1 19 20 1
1 19 24 1
1 19 25 1
1 19 26 1
1 19 71 1
1 19 79 1
1 20 21 1
1 20 27 1
1 20 28 1
1 21 22 1
1 21 29 1
1 21 30 1
1 22 23 1
1 22 31 1
1 23 24 1
1 23 32 1
1 23 33 1
1 24 34 1
1 24 35 1
1 24 71 1
1 24 72 1
1 24 78 1
1 24 79 1
1 25 70 1
1 25 76 1
1 34 71 1
1 34 72 1
1 35 78 1
1 36 37 1
1 36 41 1
1 36 42 1
1 36 43 1
1 37 38 1
1 37 44 1
1 37 45 1
1 38 39 1
1 38 46 1
1 38 47 1
1 39 40 1
1 39 48 1
1 40 41 1
1 40 49 1
1 40 50 1
1 40 85 1
1 41 51 1
1 41 52 1
1 41 66 1
1 49 75 1
1 49 85 1
1 51 57 1
1 53 54 1
1 53 58 1
1 53 59 1
1 53 60 1
1 54 55 1
1 54 61 1
1 54 62 1
1 55 56 1
1 55 63 1
1 55 64 1
1 56 57 1
1 56 65 1
1 57 58 1
1 57 66 1
1 57 67 1
1 58 68 1
1 58 69 1
1 70 71 1
1 70 75 1
1 70 76 1
1 70 77 1
1 71 72 1
1 71 78 1
1 71 79 1
1 72 73 1
1 72 80 1
1 72 81 1
1 73 74 1
1 73 82 1
1 74 75 1
1 74 83 1
1 74 84 1
1 75 85 1
1 75 86 1
@<TRIPOS>SUBSTRUCTURE
1 RES1 86
2 RES2 1

