@<TRIPOS>MOLECULE
/Users/abdulahmed/Documents/GitHub/HER-metal-complex-ligands/Runs//4_methoxyphenol/4_methoxyphenol
65	68	1
SMALL
PartialCharges
****
Generated from molSimplify

@<TRIPOS>ATOM
1 Ni1	0.0  0.0  0.0 Ni	1 RES1 0.0
2 C1	8.441909  0.142977  -0.739267 C.3	1 RES1 0.0
3 O1	7.575656  -0.300582  0.294785 O.3	1 RES1 0.0
4 C2	6.176901  -0.077772  0.193585 C.ar	1 RES1 0.0
5 C3	5.486302  -0.324208  -0.995251 C.ar	1 RES1 0.0
6 C4	4.105761  -0.297817  -1.150651 C.ar	1 RES1 0.0
7 C5	3.300902  0.0  0.0 C.ar	1 RES1 0.0
8 O2	2.0  0.0  0.0 O.3	1 RES1 0.0
9 C6	4.00731  0.306004  1.209396 C.ar	1 RES1 0.0
10 C7	5.391899  0.270316  1.284683 C.ar	1 RES1 0.0
11 H1	9.451622  -0.110324  -0.491842 H	1 RES1 0.0
12 H2	8.356233  1.204227  -0.845607 H	1 RES1 0.0
13 H3	8.170613  -0.330742  -1.659533 H	1 RES1 0.0
14 H4	6.07115  -0.553197  -1.861517 H	1 RES1 0.0
15 H5	3.655335  -0.493956  -2.101202 H	1 RES1 0.0
16 H6	3.448203  0.570568  2.082497 H	1 RES1 0.0
17 H7	5.868636  0.518106  2.210005 H	1 RES1 0.0
18 C8	-2.752935  7.980689  0.750162 C.3	1 RES1 0.0
19 O3	-2.778158  7.052963  -0.324589 O.3	1 RES1 0.0
20 C9	-2.112937  5.804556  -0.200654 C.ar	1 RES1 0.0
21 C10	-2.230949  5.030332  0.95591 C.ar	1 RES1 0.0
22 C11	-1.76131  3.73209  1.113218 C.ar	1 RES1 0.0
23 C12	-1.100368  3.112097  0.0 C.ar	1 RES1 0.0
24 O4	-0.666707  1.885604  0.0 O.3	1 RES1 0.0
25 C13	-0.929745  3.92169  -1.170785 C.ar	1 RES1 0.0
26 C14	-1.417345  5.217874  -1.249389 C.ar	1 RES1 0.0
27 H8	-3.302646  8.857293  0.477615 H	1 RES1 0.0
28 H9	-1.739787  8.248041  0.96685 H	1 RES1 0.0
29 H10	-3.197365  7.535793  1.615869 H	1 RES1 0.0
30 H11	-2.72599  5.475627  1.793494 H	1 RES1 0.0
31 H12	-1.888743  3.209281  2.038059 H	1 RES1 0.0
32 H13	-0.409256  3.512696  -2.011448 H	1 RES1 0.0
33 H14	-1.25274  5.781735  -2.143742 H	1 RES1 0.0
34 C15	-2.171019  -4.369286  6.930281 C.3	1 RES1 0.0
35 O5	-2.916782  -3.562488  6.030661 O.3	1 RES1 0.0
36 C16	-2.249845  -2.833995  5.01042 C.ar	1 RES1 0.0
37 C17	-1.249383  -3.422411  4.233354 C.ar	1 RES1 0.0
38 C18	-0.656018  -2.85578  3.111933 C.ar	1 RES1 0.0
39 C19	-1.100366  -1.55603  2.695167 C.ar	1 RES1 0.0
40 O6	-0.666706  -0.942791  1.632988 O.3	1 RES1 0.0
41 C20	-2.088771  -0.925926  3.520584 C.ar	1 RES1 0.0
42 C21	-2.62753  -1.55165  4.63514 C.ar	1 RES1 0.0
43 H15	-2.836699  -4.838616  7.624183 H	1 RES1 0.0
44 H16	-1.473275  -3.757759  7.46328 H	1 RES1 0.0
45 H17	-1.641135  -5.119422  6.381266 H	1 RES1 0.0
46 H18	-0.910475  -4.393865  4.527153 H	1 RES1 0.0
47 H19	0.110496  -3.373679  2.574217 H	1 RES1 0.0
48 H20	-2.421761  0.059235  3.268641 H	1 RES1 0.0
49 H21	-3.354949  -1.031267  5.222475 H	1 RES1 0.0
50 C22	-2.246831  -4.471772  -6.84016 C.3	1 RES1 0.0
51 O7	-2.650893  -3.203045  -6.346738 O.3	1 RES1 0.0
52 C23	-2.19097  -2.754405  -5.080407 C.ar	1 RES1 0.0
53 C24	-0.851535  -2.884578  -4.706298 C.ar	1 RES1 0.0
54 C25	-0.270561  -2.334698  -3.570146 C.ar	1 RES1 0.0
55 C26	-1.100366  -1.55603  -2.695167 C.ar	1 RES1 0.0
56 O8	-0.666706  -0.942791  -1.632988 O.3	1 RES1 0.0
57 C27	-2.487117  -1.464433  -3.047048 C.ar	1 RES1 0.0
58 C28	-2.997714  -2.052086  -4.195081 C.ar	1 RES1 0.0
59 H22	-2.688363  -4.638086  -7.800519 H	1 RES1 0.0
60 H23	-2.566875  -5.23615  -6.163256 H	1 RES1 0.0
61 H24	-1.180786  -4.497096  -6.928509 H	1 RES1 0.0
62 H25	-0.217813  -3.457486  -5.350559 H	1 RES1 0.0
63 H26	0.766111  -2.487382  -3.353583 H	1 RES1 0.0
64 H27	-3.149918  -0.925129  -2.40304 H	1 RES1 0.0
65 H28	-4.043132  -1.961592  -4.404394 H	1 RES1 0.0
@<TRIPOS>BOND
1 1 8 1
1 1 24 1
1 1 40 1
1 1 56 1
1 2 3 1
1 2 11 1
1 2 12 1
1 2 13 1
1 3 4 1
1 4 5 2
1 4 10 1
1 5 6 1
1 5 14 1
1 6 7 2
1 6 15 1
1 7 8 1
1 7 9 1
1 9 10 2
1 9 16 1
1 10 17 1
1 18 19 1
1 18 27 1
1 18 28 1
1 18 29 1
1 19 20 1
1 20 21 2
1 20 26 1
1 21 22 1
1 21 30 1
1 22 23 2
1 22 31 1
1 23 24 1
1 23 25 1
1 25 26 2
1 25 32 1
1 26 33 1
1 34 35 1
1 34 43 1
1 34 44 1
1 34 45 1
1 35 36 1
1 36 37 2
1 36 42 1
1 37 38 1
1 37 46 1
1 38 39 2
1 38 47 1
1 39 40 1
1 39 41 1
1 41 42 2
1 41 48 1
1 42 49 1
1 50 51 1
1 50 59 1
1 50 60 1
1 50 61 1
1 51 52 1
1 52 53 2
1 52 58 1
1 53 54 1
1 53 62 1
1 54 55 2
1 54 63 1
1 55 56 1
1 55 57 1
1 57 58 2
1 57 64 1
1 58 65 1
@<TRIPOS>SUBSTRUCTURE
1 RES1 65

