@<TRIPOS>MOLECULE
/Users/abdulahmed/Documents/GitHub/HER-metal-complex-ligands/Runs//3_bromo_6_mercaptopyridine_hydride/3_bromo_6_mercaptopyridine_hydride
25	28	3
SMALL
PartialCharges
****
Generated from molSimplify

@<TRIPOS>ATOM
1 Ni1	0.0  0.0  0.0 Ni	1 RES1 0.0
2 Br1	-0.2905  6.27478  0.049779 Br	1 RES1 0.0
3 C1	0.4074  4.522634  0.036128 C.2	1 RES1 0.0
4 C2	-0.434107  3.420387  0.010958 C.2	1 RES1 0.0
5 N1	-0.0  2.14  0.0 N.pl3	1 RES1 0.0
6 C3	1.31906  1.965977  0.014827 C.3	1 RES1 0.0
7 S1	1.787754  0.352246  0.0 S.3	1 RES1 0.0
8 C4	2.248442  2.994524  0.04018 C.2	1 RES1 0.0
9 C5	1.778854  4.306097  0.051083 C.2	1 RES1 0.0
10 H1	-1.512949  3.525194  -0.001655 H	1 RES1 0.0
11 H2	3.311748  2.782956  0.051209 H	1 RES1 0.0
12 H3	2.483315  5.128903  0.070859 H	1 RES1 0.0
13 Br2	0.049779  -6.27478  -0.2905 Br	1 RES1 0.0
14 C6	0.036128  -4.522634  0.4074 C.2	1 RES1 0.0
15 C7	0.010958  -3.420387  -0.434107 C.2	1 RES1 0.0
16 N2	0.0  -2.14  0.0 N.pl3	1 RES1 0.0
17 C8	0.014827  -1.965977  1.31906 C.3	1 RES1 0.0
18 S2	0.0  -0.352246  1.787754 S.3	1 RES1 0.0
19 C9	0.04018  -2.994524  2.248442 C.2	1 RES1 0.0
20 C10	0.051083  -4.306097  1.778854 C.2	1 RES1 0.0
21 H4	-0.001655  -3.525194  -1.512949 H	1 RES1 0.0
22 H5	0.051209  -2.782956  3.311748 H	1 RES1 0.0
23 H6	0.070859  -5.128903  2.483315 H	1 RES1 0.0
24 H7	-1.58  0.0  0.0 H	2 RES2 0.0
25 H8	0.0  0.0  -1.58 H	3 RES3 0.0
@<TRIPOS>BOND
1 1 5 1
1 1 6 1
1 1 7 1
1 1 16 1
1 1 17 1
1 1 18 1
1 2 3 1
1 3 4 2
1 3 9 1
1 4 5 1
1 4 10 1
1 5 6 1
1 6 7 1
1 6 8 1
1 8 9 2
1 8 11 1
1 9 12 1
1 13 14 1
1 14 15 2
1 14 20 1
1 15 16 1
1 15 21 1
1 16 17 1
1 17 18 1
1 17 19 1
1 19 20 2
1 19 22 1
1 20 23 1
@<TRIPOS>SUBSTRUCTURE
1 RES1 23
2 RES2 1
3 RES3 1

