@<TRIPOS>MOLECULE
/Users/abdulahmed/Documents/GitHub/HER-metal-complex-ligands/Runs//ni_oct_2_4hydroxy2_2_6_6tetramethylpiperidine_5_hydride_1_s_1/badjob_ni_oct_2_4hydroxy2_2_6_6tetramethylpiperidine_5_hydride_1_s_1_conf_1
152	223	2
SMALL
PartialCharges
****
Generated from molSimplify

@<TRIPOS>ATOM
1 Ni1	0.0  0.0  0.0 Ni	1 RES1 0.0
2 C1	1.095929  4.816248  0.783337 C.3	1 RES1 0.0
3 C2	0.294595  3.552998  0.514147 C.3	1 RES1 0.0
4 C3	1.017533  3.240882  -0.785985 C.3	1 RES1 0.0
5 C4	-0.700269  3.900643  1.623977 C.3	1 RES1 0.0
6 C5	-2.03305  3.7916  1.119597 C.3	1 RES1 0.0
7 O1	-2.115389  4.649311  -0.009098 O.3	1 RES1 0.0
8 C6	-2.380054  2.481327  0.667802 C.3	1 RES1 0.0
9 C7	-1.45311  2.076251  -0.480726 C.3	1 RES1 0.0
10 C8	-1.646165  3.02488  -1.652576 C.3	1 RES1 0.0
11 C9	-1.780784  0.659537  -0.923389 C.3	1 RES1 0.0
12 N1	0.0  2.14  0.0 N.3	1 RES1 0.0
13 H1	2.130663  4.566049  0.891164 H	1 RES1 0.0
14 H2	0.74463  5.27651  1.683142 H	1 RES1 0.0
15 H3	0.976591  5.495448  -0.034798 H	1 RES1 0.0
16 H4	0.880153  4.049249  -1.473422 H	1 RES1 0.0
17 H5	2.061728  3.111759  -0.591348 H	1 RES1 0.0
18 H6	0.619628  2.341922  -1.20841 H	1 RES1 0.0
19 H7	-0.572123  3.224077  2.442963 H	1 RES1 0.0
20 H8	-0.526163  4.902028  1.958365 H	1 RES1 0.0
21 H9	-2.711242  4.068796  1.899415 H	1 RES1 0.0
22 H10	-1.464039  4.347546  -0.705289 H	1 RES1 0.0
23 H11	-3.394019  2.478486  0.32609 H	1 RES1 0.0
24 H12	-2.273797  1.786097  1.474192 H	1 RES1 0.0
25 H13	-0.99585  2.739882  -2.453055 H	1 RES1 0.0
26 H14	-2.662204  2.97903  -1.984937 H	1 RES1 0.0
27 H15	-1.416345  4.023513  -1.344656 H	1 RES1 0.0
28 H16	-1.643482  -0.011696  -0.101504 H	1 RES1 0.0
29 H17	-2.797466  0.615317  -1.253995 H	1 RES1 0.0
30 H18	-1.132068  0.377699  -1.726281 H	1 RES1 0.0
31 H19	0.140982  1.466078  0.752564 H	1 RES1 0.0
32 C10	4.816248  1.067923  -0.821107 C.3	1 RES1 0.0
33 C11	3.552998  0.276472  -0.524115 C.3	1 RES1 0.0
34 C12	3.240882  1.044343  0.749995 C.3	1 RES1 0.0
35 C13	3.900643  -0.756518  -1.598549 C.3	1 RES1 0.0
36 C14	3.7916  -2.070885  -1.047962 C.3	1 RES1 0.0
37 O2	4.649311  -2.113783  0.082919 O.3	1 RES1 0.0
38 C15	2.481327  -2.40191  -0.584333 C.3	1 RES1 0.0
39 C16	2.076251  -1.435447  0.531146 C.3	1 RES1 0.0
40 C17	3.02488  -1.587488  1.70902 C.3	1 RES1 0.0
41 C18	0.659537  -1.747473  0.984975 C.3	1 RES1 0.0
42 N2	2.14  0.0  0.0 N.3	1 RES1 0.0
43 H20	4.566049  2.098264  -0.96498 H	1 RES1 0.0
44 H21	5.27651  0.685436  -1.708104 H	1 RES1 0.0
45 H22	5.495448  0.977211  0.000694 H	1 RES1 0.0
46 H23	4.049249  0.931039  1.441807 H	1 RES1 0.0
47 H24	3.111759  2.08111  0.519034 H	1 RES1 0.0
48 H25	2.341922  0.661423  1.186049 H	1 RES1 0.0
49 H26	3.224077  -0.657032  -2.421508 H	1 RES1 0.0
50 H27	4.902028  -0.594189  -1.938809 H	1 RES1 0.0
51 H28	4.068796  -2.77588  -1.803637 H	1 RES1 0.0
52 H29	4.347546  -1.438533  0.755954 H	1 RES1 0.0
53 H30	2.478486  -3.403331  -0.207441 H	1 RES1 0.0
54 H31	1.786097  -2.32386  -1.39394 H	1 RES1 0.0
55 H32	2.739882  -0.909633  2.486315 H	1 RES1 0.0
56 H33	2.97903  -2.591309  2.076638 H	1 RES1 0.0
57 H34	4.023513  -1.368554  1.393266 H	1 RES1 0.0
58 H35	-0.011696  -1.638938  0.158799 H	1 RES1 0.0
59 H36	0.615317  -2.751998  1.350862 H	1 RES1 0.0
60 H37	0.377699  -1.071132  1.764738 H	1 RES1 0.0
61 H38	1.466078  0.114632  -0.757026 H	1 RES1 0.0
62 C19	0.909115  -4.816248  -0.994076 C.3	1 RES1 0.0
63 C20	0.18126  -3.552998  -0.564162 C.3	1 RES1 0.0
64 C21	1.158713  -3.240882  0.557253 C.3	1 RES1 0.0
65 C22	-1.02261  -3.900643  -1.442895 C.3	1 RES1 0.0
66 C23	-2.2214  -3.7916  -0.672436 C.3	1 RES1 0.0
67 O3	-2.067271  -4.649311  0.448714 O.3	1 RES1 0.0
68 C24	-2.466888  -2.481327  -0.158368 C.3	1 RES1 0.0
69 C25	-1.321407  -2.076251  0.77234 C.3	1 RES1 0.0
70 C26	-1.266603  -3.02488  1.95872 C.3	1 RES1 0.0
71 C27	-1.549886  -0.659537  1.273457 C.3	1 RES1 0.0
72 N3	0.0  -2.14  0.0 N.3	1 RES1 0.0
73 H39	1.898819  -4.566049  -1.31468 H	1 RES1 0.0
74 H40	0.378414  -5.27651  -1.801179 H	1 RES1 0.0
75 H41	0.962486  -5.495448  -0.169007 H	1 RES1 0.0
76 H42	1.167261  -4.049249  1.25823 H	1 RES1 0.0
77 H43	2.139622  -3.111759  0.149768 H	1 RES1 0.0
78 H44	0.85733  -2.341922  1.053175 H	1 RES1 0.0
79 H45	-1.067541  -3.224077  -2.270627 H	1 RES1 0.0
80 H46	-0.921832  -4.902028  -1.806174 H	1 RES1 0.0
81 H47	-3.046906  -4.068796  -1.294209 H	1 RES1 0.0
82 H48	-1.285409  -4.347546  0.994268 H	1 RES1 0.0
83 H49	-3.387649  -2.478486  0.386692 H	1 RES1 0.0
84 H50	-2.530611  -1.786097  -0.969229 H	1 RES1 0.0
85 H51	-0.464069  -2.739882  2.606498 H	1 RES1 0.0
86 H52	-2.191336  -2.97903  2.495065 H	1 RES1 0.0
87 H53	-1.105824  -4.023513  1.609747 H	1 RES1 0.0
88 H54	-1.586464  0.011696  0.440985 H	1 RES1 0.0
89 H55	-2.475615  -0.615317  1.808219 H	1 RES1 0.0
90 H56	-0.748415  -0.377699  1.923927 H	1 RES1 0.0
91 H57	-0.018566  -1.466078  -0.765431 H	1 RES1 0.0
92 C28	-4.816248  -1.194283  -0.62319 C.3	1 RES1 0.0
93 C29	-3.552998  -0.363284  -0.468144 C.3	1 RES1 0.0
94 C30	-3.240882  -0.898242  0.919949 C.3	1 RES1 0.0
95 C31	-3.900643  0.46744  -1.705631 C.3	1 RES1 0.0
96 C32	-3.7916  1.857446  -1.391647 C.3	1 RES1 0.0
97 O4	-4.649311  2.096068  -0.285395 O.3	1 RES1 0.0
98 C33	-2.481327  2.263951  -0.992543 C.3	1 RES1 0.0
99 C34	-2.076251  1.505872  0.273814 C.3	1 RES1 0.0
100 C35	-3.02488  1.860139  1.407391 C.3	1 RES1 0.0
101 C36	-0.659537  1.891964  0.666566 C.3	1 RES1 0.0
102 N4	-2.14  0.0  0.0 N.3	1 RES1 0.0
103 H58	-4.566049  -2.233953  -0.58596 H	1 RES1 0.0
104 H59	-5.27651  -0.971632  -1.563129 H	1 RES1 0.0
105 H60	-5.495448  -0.962244  0.170375 H	1 RES1 0.0
106 H61	-4.049249  -0.666527  1.581576 H	1 RES1 0.0
107 H62	-3.111759  -1.959364  0.87253 H	1 RES1 0.0
108 H63	-2.341922  -0.445419  1.282885 H	1 RES1 0.0
109 H64	-3.224077  0.22656  -2.498812 H	1 RES1 0.0
110 H65	-4.902028  0.248491  -2.012534 H	1 RES1 0.0
111 H66	-4.068796  2.420509  -2.258262 H	1 RES1 0.0
112 H67	-4.347546  1.547949  0.49467 H	1 RES1 0.0
113 H68	-2.478486  3.315605  -0.795272 H	1 RES1 0.0
114 H69	-1.786097  2.0465  -1.776297 H	1 RES1 0.0
115 H70	-2.739882  1.327557  2.290586 H	1 RES1 0.0
116 H71	-2.97903  2.912545  1.595113 H	1 RES1 0.0
117 H72	-4.023513  1.589701  1.134453 H	1 RES1 0.0
118 H73	0.011696  1.641614  -0.128212 H	1 RES1 0.0
119 H74	-0.615317  2.944764  0.85246 H	1 RES1 0.0
120 H75	-0.377699  1.361302  1.551927 H	1 RES1 0.0
121 H76	-1.466078  -0.244346  -0.725619 H	1 RES1 0.0
122 C37	-1.344506  0.083554  4.816248 C.3	1 RES1 0.0
123 C38	-0.522287  0.27991  3.552998 C.3	1 RES1 0.0
124 C39	-0.446408  -1.205764  3.240882 C.3	1 RES1 0.0
125 C40	-0.266715  1.748297  3.900643 C.3	1 RES1 0.0
126 C41	1.130828  2.026824  3.7916 C.3	1 RES1 0.0
127 O5	1.798773  1.11327  4.649311 O.3	1 RES1 0.0
128 C42	1.664519  1.827565  2.481327 C.3	1 RES1 0.0
129 C43	1.487053  0.362352  2.076251 C.3	1 RES1 0.0
130 C44	2.271759  -0.529129  3.02488 C.3	1 RES1 0.0
131 C45	1.999512  0.160593  0.659537 C.3	1 RES1 0.0
132 N5	0.0  0.0  2.14 N.3	1 RES1 0.0
133 H77	-2.279149  -0.373329  4.566049 H	1 RES1 0.0
134 H78	-1.523412  1.032791  5.27651 H	1 RES1 0.0
135 H79	-0.809756  -0.547025  5.495448 H	1 RES1 0.0
136 H80	0.034382  -1.715942  4.049249 H	1 RES1 0.0
137 H81	-1.435078  -1.594041  3.111759 H	1 RES1 0.0
138 H82	0.114886  -1.353142  2.341922 H	1 RES1 0.0
139 H83	-0.809386  2.374929  3.224077 H	1 RES1 0.0
140 H84	-0.591563  1.939611  4.902028 H	1 RES1 0.0
141 H85	1.292727  3.047535  4.068796 H	1 RES1 0.0
142 H86	1.615322  0.177704  4.347546 H	1 RES1 0.0
143 H87	2.70549  2.075095  2.478486 H	1 RES1 0.0
144 H88	1.147086  2.455115  1.786097 H	1 RES1 0.0
145 H89	2.144449  -1.552588  2.739882 H	1 RES1 0.0
146 H90	3.309533  -0.272569  2.97903 H	1 RES1 0.0
147 H91	1.913687  -0.389785  4.023513 H	1 RES1 0.0
148 H92	1.447541  0.784832  -0.011696 H	1 RES1 0.0
149 H93	3.036902  0.418983  0.615317 H	1 RES1 0.0
150 H94	1.874837  -0.864065  0.377699 H	1 RES1 0.0
151 H95	-0.518358  0.563502  1.466078 H	1 RES1 0.0
152 H96	-0.0  0.0  -1.58 H	2 RES2 0.0
@<TRIPOS>BOND
1 1 11 1
1 1 41 1
1 1 71 1
1 1 101 1
1 1 131 1
1 2 3 1
1 2 13 1
1 2 14 1
1 2 15 1
1 3 4 1
1 3 5 1
1 3 12 1
1 3 119 1
1 4 12 1
1 4 16 1
1 4 17 1
1 4 18 1
1 5 6 1
1 5 19 1
1 5 20 1
1 5 119 1
1 6 7 1
1 6 8 1
1 6 21 1
1 7 22 1
1 8 9 1
1 8 23 1
1 8 24 1
1 8 98 1
1 8 99 1
1 8 100 1
1 8 116 1
1 9 10 1
1 9 11 1
1 9 12 1
1 9 98 1
1 9 99 1
1 9 101 1
1 10 25 1
1 10 26 1
1 10 27 1
1 10 98 1
1 10 113 1
1 10 114 1
1 11 28 1
1 11 29 1
1 11 30 1
1 11 98 1
1 11 99 1
1 11 102 1
1 11 121 1
1 12 31 1
1 12 101 1
1 12 118 1
1 22 27 1
1 23 100 1
1 24 99 1
1 24 100 1
1 26 98 1
1 28 88 1
1 28 102 1
1 28 121 1
1 29 95 1
1 31 101 1
1 32 33 1
1 32 43 1
1 32 44 1
1 32 45 1
1 33 34 1
1 33 35 1
1 33 42 1
1 33 149 1
1 34 42 1
1 34 46 1
1 34 47 1
1 34 48 1
1 34 131 1
1 34 149 1
1 35 36 1
1 35 49 1
1 35 50 1
1 36 37 1
1 36 38 1
1 36 51 1
1 37 52 1
1 38 39 1
1 38 53 1
1 38 54 1
1 38 77 1
1 39 40 1
1 39 41 1
1 39 42 1
1 39 131 1
1 39 150 1
1 40 55 1
1 40 56 1
1 40 57 1
1 41 58 1
1 41 59 1
1 41 60 1
1 41 64 1
1 41 72 1
1 41 78 1
1 42 61 1
1 42 131 1
1 42 148 1
1 42 149 1
1 42 150 1
1 48 129 1
1 48 131 1
1 52 57 1
1 53 77 1
1 55 130 1
1 58 72 1
1 59 64 1
1 59 78 1
1 60 132 1
1 60 138 1
1 62 63 1
1 62 73 1
1 62 74 1
1 62 75 1
1 63 64 1
1 63 65 1
1 63 72 1
1 64 72 1
1 64 76 1
1 64 77 1
1 64 78 1
1 65 66 1
1 65 79 1
1 65 80 1
1 66 67 1
1 66 68 1
1 66 81 1
1 67 82 1
1 68 69 1
1 68 83 1
1 68 84 1
1 69 70 1
1 69 71 1
1 69 72 1
1 70 85 1
1 70 86 1
1 70 87 1
1 71 88 1
1 71 89 1
1 71 90 1
1 71 94 1
1 71 102 1
1 71 108 1
1 72 91 1
1 82 87 1
1 83 107 1
1 88 102 1
1 89 94 1
1 89 108 1
1 90 132 1
1 92 93 1
1 92 103 1
1 92 104 1
1 92 105 1
1 93 94 1
1 93 95 1
1 93 102 1
1 94 102 1
1 94 106 1
1 94 107 1
1 94 108 1
1 95 96 1
1 95 109 1
1 95 110 1
1 96 97 1
1 96 98 1
1 96 111 1
1 97 112 1
1 98 99 1
1 98 113 1
1 98 114 1
1 99 100 1
1 99 101 1
1 99 102 1
1 100 115 1
1 100 116 1
1 100 117 1
1 101 118 1
1 101 119 1
1 101 120 1
1 102 121 1
1 112 117 1
1 120 151 1
1 122 123 1
1 122 133 1
1 122 134 1
1 122 135 1
1 123 124 1
1 123 125 1
1 123 132 1
1 124 132 1
1 124 136 1
1 124 137 1
1 124 138 1
1 125 126 1
1 125 139 1
1 125 140 1
1 126 127 1
1 126 128 1
1 126 141 1
1 127 142 1
1 128 129 1
1 128 143 1
1 128 144 1
1 129 130 1
1 129 131 1
1 129 132 1
1 130 145 1
1 130 146 1
1 130 147 1
1 131 148 1
1 131 149 1
1 131 150 1
1 132 151 1
1 142 147 1
@<TRIPOS>SUBSTRUCTURE
1 RES1 151
2 RES2 1

