@<TRIPOS>MOLECULE
/Users/abdulahmed/Documents/GitHub/HER-metal-complex-ligands/Runs//2_mercapto_6_methylpyridine_hydride/2_mercapto_6_methylpyridine_hydride
31	34	3
SMALL
PartialCharges
****
Generated from molSimplify

@<TRIPOS>ATOM
1 Ni1	0.0  0.0  0.0 Ni	1 RES1 0.0
2 C1	3.351622  -1.515245  -0.004873 C.3	1 RES1 0.0
3 C2	3.126424  -0.035232  0.010671 C.2	1 RES1 0.0
4 C3	4.210794  0.838853  0.034936 C.2	1 RES1 0.0
5 C4	3.961884  2.20699  0.048802 C.2	1 RES1 0.0
6 C5	2.645515  2.657827  0.038077 C.2	1 RES1 0.0
7 C6	1.629268  1.716081  0.013818 C.3	1 RES1 0.0
8 S1	0.0  2.23  0.0 S.3	1 RES1 0.0
9 N1	1.842475  0.387525  -0.0 N.pl3	1 RES1 0.0
10 H1	3.922788  -1.801695  -0.893429 H	1 RES1 0.0
11 H2	2.399902  -2.056135  -0.02338 H	1 RES1 0.0
12 H3	3.900663  -1.823793  0.890207 H	1 RES1 0.0
13 H4	5.226692  0.464223  0.042882 H	1 RES1 0.0
14 H5	4.777925  2.919795  0.067744 H	1 RES1 0.0
15 H6	2.422441  3.718615  0.048456 H	1 RES1 0.0
16 C7	-0.004873  1.515245  3.351622 C.3	1 RES1 0.0
17 C8	0.010671  0.035232  3.126424 C.2	1 RES1 0.0
18 C9	0.034936  -0.838853  4.210794 C.2	1 RES1 0.0
19 C10	0.048802  -2.20699  3.961884 C.2	1 RES1 0.0
20 C11	0.038077  -2.657827  2.645515 C.2	1 RES1 0.0
21 C12	0.013818  -1.716081  1.629268 C.3	1 RES1 0.0
22 S2	0.0  -2.23  0.0 S.3	1 RES1 0.0
23 N2	0.0  -0.387525  1.842475 N.pl3	1 RES1 0.0
24 H7	-0.893429  1.801695  3.922788 H	1 RES1 0.0
25 H8	-0.02338  2.056135  2.399902 H	1 RES1 0.0
26 H9	0.890207  1.823793  3.900663 H	1 RES1 0.0
27 H10	0.042882  -0.464223  5.226692 H	1 RES1 0.0
28 H11	0.067744  -2.919795  4.777925 H	1 RES1 0.0
29 H12	0.048456  -3.718615  2.422441 H	1 RES1 0.0
30 H13	-1.58  0.0  0.0 H	2 RES2 0.0
31 H14	0.0  0.0  -1.58 H	3 RES3 0.0
@<TRIPOS>BOND
1 1 7 1
1 1 8 1
1 1 9 1
1 1 21 1
1 1 22 1
1 1 23 1
1 2 3 1
1 2 10 1
1 2 11 1
1 2 12 1
1 3 4 2
1 3 9 1
1 4 5 1
1 4 13 1
1 5 6 2
1 5 14 1
1 6 7 1
1 6 15 1
1 7 8 1
1 7 9 1
1 16 17 1
1 16 24 1
1 16 25 1
1 16 26 1
1 17 18 2
1 17 23 1
1 18 19 1
1 18 27 1
1 19 20 2
1 19 28 1
1 20 21 1
1 20 29 1
1 21 22 1
1 21 23 1
@<TRIPOS>SUBSTRUCTURE
1 RES1 29
2 RES2 1
3 RES3 1

