@<TRIPOS>MOLECULE
/Users/abdulahmed/Documents/GitHub/HER-metal-complex-ligands/Runs//2_aminobenzethiol_hydride/2_aminobenzethiol_hydride
29	30	3
SMALL
PartialCharges
****
Generated from molSimplify

@<TRIPOS>ATOM
1 Ni1	0.0  0.0  0.0 Ni	1 RES1 0.0
2 N1	0.0  2.14  0.0 N.pl3	1 RES1 0.0
3 C1	1.295264  2.535861  -0.017211 C.ar	1 RES1 0.0
4 C2	1.594777  3.91378  -0.034284 C.ar	1 RES1 0.0
5 C3	2.907726  4.396623  -0.05256 C.ar	1 RES1 0.0
6 C4	3.97051  3.503856  -0.054291 C.ar	1 RES1 0.0
7 C5	3.713441  2.133466  -0.037727 C.ar	1 RES1 0.0
8 C6	2.395859  1.645298  -0.019349 C.ar	1 RES1 0.0
9 S1	2.221738  -0.081738  0.0 S.3	1 RES1 0.0
10 H1	-0.59154  2.973383  -0.002461 H	1 RES1 0.0
11 H2	0.775083  4.625734  -0.033187 H	1 RES1 0.0
12 H3	3.083712  5.463947  -0.065214 H	1 RES1 0.0
13 H4	4.992126  3.858242  -0.068295 H	1 RES1 0.0
14 H5	4.544571  1.435762  -0.039085 H	1 RES1 0.0
15 N2	0.0  -2.14  0.0 N.pl3	1 RES1 0.0
16 C7	-0.017211  -2.535861  1.295264 C.ar	1 RES1 0.0
17 C8	-0.034284  -3.91378  1.594777 C.ar	1 RES1 0.0
18 C9	-0.05256  -4.396623  2.907726 C.ar	1 RES1 0.0
19 C10	-0.054291  -3.503856  3.97051 C.ar	1 RES1 0.0
20 C11	-0.037727  -2.133466  3.713441 C.ar	1 RES1 0.0
21 C12	-0.019349  -1.645298  2.395859 C.ar	1 RES1 0.0
22 S2	-0.0  0.081738  2.221738 S.3	1 RES1 0.0
23 H6	-0.002461  -2.973383  -0.59154 H	1 RES1 0.0
24 H7	-0.033187  -4.625734  0.775083 H	1 RES1 0.0
25 H8	-0.065214  -5.463947  3.083712 H	1 RES1 0.0
26 H9	-0.068295  -3.858242  4.992126 H	1 RES1 0.0
27 H10	-0.039085  -1.435762  4.544571 H	1 RES1 0.0
28 H11	-1.58  0.0  0.0 H	2 RES2 0.0
29 H12	0.0  0.0  -1.58 H	3 RES3 0.0
@<TRIPOS>BOND
1 1 2 1
1 1 9 1
1 1 15 1
1 1 22 1
1 2 3 1
1 2 10 1
1 3 4 2
1 3 8 1
1 4 5 1
1 4 11 1
1 5 6 2
1 5 12 1
1 6 7 1
1 6 13 1
1 7 8 2
1 7 14 1
1 8 9 1
1 15 16 1
1 15 23 1
1 16 17 2
1 16 21 1
1 17 18 1
1 17 24 1
1 18 19 2
1 18 25 1
1 19 20 1
1 19 26 1
1 20 21 2
1 20 27 1
1 21 22 1
@<TRIPOS>SUBSTRUCTURE
1 RES1 27
2 RES2 1
3 RES3 1

