@<TRIPOS>MOLECULE
/Users/abdulahmed/Documents/GitHub/HER-metal-complex-ligands/Runs//4_hydroxy2_2_6_6_tetramethylpiperidine/4_hydroxy2_2_6_6_tetramethylpiperidine
175	249	1
SMALL
PartialCharges
****
Generated from molSimplify

@<TRIPOS>ATOM
1 Ni1	0.0  0.0  0.0 Ni	1 RES1 0.0
2 C1	1.292675  4.1529  0.954061 C.3	1 RES1 0.0
3 C2	0.30128  3.029629  1.210573 C.3	1 RES1 0.0
4 C3	0.724286  2.017736  2.262969 C.3	1 RES1 0.0
5 C4	-0.887173  3.962177  1.456069 C.3	1 RES1 0.0
6 C5	-1.13377  4.738064  0.281426 C.3	1 RES1 0.0
7 O1	0.07425  5.421113  -0.019457 O.3	1 RES1 0.0
8 C6	-1.466327  3.961665  -0.870943 C.3	1 RES1 0.0
9 C7	-0.30128  3.029063  -1.210573 C.3	1 RES1 0.0
10 C8	0.928011  3.852381  -1.558983 C.3	1 RES1 0.0
11 C9	-0.675743  2.159503  -2.399708 C.3	1 RES1 0.0
12 N1	0.0  2.14  0.0 N.3	1 RES1 0.0
13 H1	1.291898  4.826139  1.785716 H	1 RES1 0.0
14 H2	1.01137  4.68129  0.067173 H	1 RES1 0.0
15 H3	2.27265  3.741997  0.828724 H	1 RES1 0.0
16 H4	1.639621  1.552131  1.962514 H	1 RES1 0.0
17 H5	0.867909  2.515632  3.199117 H	1 RES1 0.0
18 H6	-0.0369  1.273128  2.36811 H	1 RES1 0.0
19 H7	-1.754905  3.380883  1.68853 H	1 RES1 0.0
20 H8	-0.665534  4.614673  2.274619 H	1 RES1 0.0
21 H9	-1.945988  5.404714  0.483364 H	1 RES1 0.0
22 H10	0.797968  4.754881  -0.199368 H	1 RES1 0.0
23 H11	-1.654607  4.613514  -1.698315 H	1 RES1 0.0
24 H12	-2.341568  3.380233  -0.668974 H	1 RES1 0.0
25 H13	1.740843  3.197582  -1.794447 H	1 RES1 0.0
26 H14	0.713839  4.473132  -2.40379 H	1 RES1 0.0
27 H15	1.194707  4.466003  -0.723973 H	1 RES1 0.0
28 H16	-1.539463  1.576345  -2.157192 H	1 RES1 0.0
29 H17	-0.890934  2.781943  -3.243012 H	1 RES1 0.0
30 H18	0.139568  1.508097  -2.63601 H	1 RES1 0.0
31 C10	4.1529  1.292675  -0.954061 C.3	1 RES1 0.0
32 C11	3.029629  0.30128  -1.210573 C.3	1 RES1 0.0
33 C12	2.017736  0.724286  -2.262969 C.3	1 RES1 0.0
34 C13	3.962177  -0.887173  -1.456069 C.3	1 RES1 0.0
35 C14	4.738064  -1.13377  -0.281426 C.3	1 RES1 0.0
36 O2	5.421113  0.07425  0.019457 O.3	1 RES1 0.0
37 C15	3.961665  -1.466327  0.870943 C.3	1 RES1 0.0
38 C16	3.029063  -0.30128  1.210573 C.3	1 RES1 0.0
39 C17	3.852381  0.928011  1.558983 C.3	1 RES1 0.0
40 C18	2.159503  -0.675743  2.399708 C.3	1 RES1 0.0
41 N2	2.14  0.0  0.0 N.3	1 RES1 0.0
42 H19	4.826139  1.291898  -1.785716 H	1 RES1 0.0
43 H20	4.68129  1.01137  -0.067173 H	1 RES1 0.0
44 H21	3.741997  2.27265  -0.828724 H	1 RES1 0.0
45 H22	1.552131  1.639621  -1.962514 H	1 RES1 0.0
46 H23	2.515632  0.867909  -3.199117 H	1 RES1 0.0
47 H24	1.273128  -0.0369  -2.36811 H	1 RES1 0.0
48 H25	3.380883  -1.754905  -1.68853 H	1 RES1 0.0
49 H26	4.614673  -0.665534  -2.274619 H	1 RES1 0.0
50 H27	5.404714  -1.945988  -0.483364 H	1 RES1 0.0
51 H28	4.754881  0.797968  0.199368 H	1 RES1 0.0
52 H29	4.613514  -1.654607  1.698315 H	1 RES1 0.0
53 H30	3.380233  -2.341568  0.668974 H	1 RES1 0.0
54 H31	3.197582  1.740843  1.794447 H	1 RES1 0.0
55 H32	4.473132  0.713839  2.40379 H	1 RES1 0.0
56 H33	4.466003  1.194707  0.723973 H	1 RES1 0.0
57 H34	1.576345  -1.539463  2.157192 H	1 RES1 0.0
58 H35	2.781943  -0.890934  3.243012 H	1 RES1 0.0
59 H36	1.508097  0.139568  2.63601 H	1 RES1 0.0
60 C19	-1.385321  -4.1529  0.813713 C.3	1 RES1 0.0
61 C20	-0.426169  -3.029629  1.172449 C.3	1 RES1 0.0
62 C21	-0.956863  -2.017736  2.174864 C.3	1 RES1 0.0
63 C22	0.730112  -3.962177  1.540827 C.3	1 RES1 0.0
64 C23	1.098142  -4.738064  0.398396 C.3	1 RES1 0.0
65 O3	-0.07181  -5.421113  -0.027112 O.3	1 RES1 0.0
66 C24	1.549333  -3.961665  -0.712899 C.3	1 RES1 0.0
67 C25	0.426169  -3.029063  -1.172449 C.3	1 RES1 0.0
68 C26	-0.75997  -3.852381  -1.647446 C.3	1 RES1 0.0
69 C27	0.922879  -2.159503  -2.315928 C.3	1 RES1 0.0
70 N3	0.0  -2.14  0.0 N.3	1 RES1 0.0
71 H37	-1.471479  -4.826139  1.640893 H	1 RES1 0.0
72 H38	-1.012851  -4.68129  -0.038912 H	1 RES1 0.0
73 H39	-2.346825  -3.741997  0.586628 H	1 RES1 0.0
74 H40	-1.835777  -1.552131  1.780376 H	1 RES1 0.0
75 H41	-1.197553  -2.515632  3.090871 H	1 RES1 0.0
76 H42	-0.210837  -1.273128  2.358994 H	1 RES1 0.0
77 H43	1.568792  -3.380883  1.862718 H	1 RES1 0.0
78 H44	0.424126  -4.614673  2.331726 H	1 RES1 0.0
79 H45	1.884803  -5.404714  0.684128 H	1 RES1 0.0
80 H46	-0.772757  -4.754881  -0.281686 H	1 RES1 0.0
81 H47	1.823065  -4.613514  -1.516057 H	1 RES1 0.0
82 H48	2.398667  -3.380233  -0.420548 H	1 RES1 0.0
83 H49	-1.543735  -3.197582  -1.966584 H	1 RES1 0.0
84 H50	-0.458665  -4.473132  -2.465238 H	1 RES1 0.0
85 H51	-1.112486  -4.466003  -0.844888 H	1 RES1 0.0
86 H52	1.756518  -1.576345  -1.984457 H	1 RES1 0.0
87 H53	1.22504  -2.781943  -3.132119 H	1 RES1 0.0
88 H54	0.136734  -1.508097  -2.636158 H	1 RES1 0.0
89 C28	-4.1529  1.325184  0.908366 C.3	1 RES1 0.0
90 C29	-3.029629  0.343345  1.199321 C.3	1 RES1 0.0
91 C30	-2.017736  0.802821  2.236314 C.3	1 RES1 0.0
92 C31	-3.962177  -0.835816  1.486144 C.3	1 RES1 0.0
93 C32	-4.738064  -1.123258  0.320823 C.3	1 RES1 0.0
94 O4	-5.421113  0.073526  -0.022037 O.3	1 RES1 0.0
95 C33	-3.961665  -1.49583  -0.819239 C.3	1 RES1 0.0
96 C34	-3.029063  -0.343345  -1.199321 C.3	1 RES1 0.0
97 C35	-3.852381  0.873038  -1.59042 C.3	1 RES1 0.0
98 C36	-2.159503  -0.75908  -2.374663 C.3	1 RES1 0.0
99 N4	-2.14  0.0  0.0 N.3	1 RES1 0.0
100 H55	-4.826139  1.353432  1.739541 H	1 RES1 0.0
101 H56	-4.68129  1.013098  0.031835 H	1 RES1 0.0
102 H57	-3.741997  2.300187  0.748905 H	1 RES1 0.0
103 H58	-1.552131  1.707113  1.904097 H	1 RES1 0.0
104 H59	-2.515632  0.979028  3.166879 H	1 RES1 0.0
105 H60	-1.273128  0.045769  2.367955 H	1 RES1 0.0
106 H61	-3.380883  -1.694907  1.748747 H	1 RES1 0.0
107 H62	-4.614673  -0.585746  2.296461 H	1 RES1 0.0
108 H63	-5.404714  -1.927934  0.550984 H	1 RES1 0.0
109 H64	-4.754881  0.790524  -0.227095 H	1 RES1 0.0
110 H65	-4.613514  -1.71287  -1.639535 H	1 RES1 0.0
111 H66	-3.380233  -2.363488  -0.586846 H	1 RES1 0.0
112 H67	-3.197582  1.677157  -1.854108 H	1 RES1 0.0
113 H68	-4.473132  0.629514  -2.427238 H	1 RES1 0.0
114 H69	-4.466003  1.168713  -0.765226 H	1 RES1 0.0
115 H70	-1.576345  -1.613811  -2.102151 H	1 RES1 0.0
116 H71	-2.781943  -1.00357  -3.209944 H	1 RES1 0.0
117 H72	-1.508097  0.047488  -2.639275 H	1 RES1 0.0
118 C37	0.888409  -1.338645  4.1529 C.3	1 RES1 0.0
119 C38	-0.13093  -1.24061  3.029629 C.3	1 RES1 0.0
120 C39	-0.093375  -2.374216  2.017736 C.3	1 RES1 0.0
121 C40	-1.331674  -1.064826  3.962177 C.3	1 RES1 0.0
122 C41	-1.161649  0.123318  4.738064 C.3	1 RES1 0.0
123 O5	0.076427  -0.007111  5.421113 O.3	1 RES1 0.0
124 C42	-1.080017  1.319932  3.961665 C.3	1 RES1 0.0
125 C43	0.13093  1.24061  3.029063 C.3	1 RES1 0.0
126 C44	1.405249  1.147566  3.852381 C.3	1 RES1 0.0
127 C45	0.185758  2.486106  2.159503 C.3	1 RES1 0.0
128 N5	0.0  0.0  2.14 N.3	1 RES1 0.0
129 H73	0.603237  -2.119879  4.826139 H	1 RES1 0.0
130 H74	0.927402  -0.40903  4.68129 H	1 RES1 0.0
131 H75	1.852152  -1.556038  3.741997 H	1 RES1 0.0
132 H76	0.86952  -2.404943  1.552131 H	1 RES1 0.0
133 H77	-0.278595  -3.303029  2.515632 H	1 RES1 0.0
134 H78	-0.844616  -2.212675  1.273128 H	1 RES1 0.0
135 H79	-2.226582  -0.986487  3.380883 H	1 RES1 0.0
136 H80	-1.403363  -1.909817  4.614673 H	1 RES1 0.0
137 H81	-1.993951  0.211353  5.404714 H	1 RES1 0.0
138 H82	0.818032  -0.085576  4.754881 H	1 RES1 0.0
139 H83	-0.973965  2.161803  4.613514 H	1 RES1 0.0
140 H84	-1.971551  1.429493  3.380233 H	1 RES1 0.0
141 H85	2.249594  1.090825  3.197582 H	1 RES1 0.0
142 H86	1.492934  2.014676  4.473132 H	1 RES1 0.0
143 H87	1.37027  0.271698  4.466003 H	1 RES1 0.0
144 H88	-0.708819  2.553625  1.576345 H	1 RES1 0.0
145 H89	0.271972  3.352152  2.781943 H	1 RES1 0.0
146 H90	1.03272  2.429304  1.508097 H	1 RES1 0.0
147 C46	1.448105  0.695868  -4.1529 C.3	1 RES1 0.0
148 C47	0.522055  1.133011  -3.029629 C.3	1 RES1 0.0
149 C48	1.134155  2.087897  -2.017736 C.3	1 RES1 0.0
150 C49	-0.599643  1.596133  -3.962177 C.3	1 RES1 0.0
151 C50	-1.061267  0.488208  -4.738064 C.3	1 RES1 0.0
152 O6	0.06931  -0.032981  -5.421113 O.3	1 RES1 0.0
153 C51	-1.60318  -0.581783  -3.961665 C.3	1 RES1 0.0
154 C52	-0.522055  -1.133011  -3.029063 C.3	1 RES1 0.0
155 C53	0.620544  -1.704863  -3.852381 C.3	1 RES1 0.0
156 C54	-1.112002  -2.231296  -2.159503 C.3	1 RES1 0.0
157 N6	0.0  0.0  -2.14 N.3	1 RES1 0.0
158 H91	1.602654  1.513037  -4.826139 H	1 RES1 0.0
159 H92	1.006121  -0.122883  -4.68129 H	1 RES1 0.0
160 H93	2.387432  0.389725  -3.741997 H	1 RES1 0.0
161 H94	1.977277  1.621788  -1.552131 H	1 RES1 0.0
162 H95	1.450078  2.980753  -2.515632 H	1 RES1 0.0
163 H96	0.405996  2.333339  -1.273128 H	1 RES1 0.0
164 H97	-1.408697  1.986554  -3.380883 H	1 RES1 0.0
165 H98	-0.229039  2.358892  -4.614673 H	1 RES1 0.0
166 H99	-1.821485  0.838276  -5.404714 H	1 RES1 0.0
167 H100	0.746697  -0.344882  -4.754881 H	1 RES1 0.0
168 H101	-1.94266  -1.359437  -4.613514 H	1 RES1 0.0
169 H102	-2.425305  -0.219915  -3.380233 H	1 RES1 0.0
170 H103	1.375102  -2.087982  -3.197582 H	1 RES1 0.0
171 H104	0.252371  -2.494811  -4.473132 H	1 RES1 0.0
172 H105	1.038486  -0.934349  -4.466003 H	1 RES1 0.0
173 H106	-1.915237  -1.831745  -1.576345 H	1 RES1 0.0
174 H107	-1.480895  -3.019576  -2.781943 H	1 RES1 0.0
175 H108	-0.355164  -2.6157  -1.508097 H	1 RES1 0.0
@<TRIPOS>BOND
1 1 12 1
1 1 41 1
1 1 70 1
1 1 99 1
1 1 128 1
1 1 157 1
1 2 3 1
1 2 13 1
1 2 14 1
1 2 15 1
1 3 4 1
1 3 5 1
1 3 12 1
1 3 127 1
1 3 144 1
1 3 146 1
1 4 16 1
1 4 17 1
1 4 18 1
1 4 125 1
1 4 127 1
1 4 146 1
1 5 6 1
1 5 19 1
1 5 20 1
1 6 7 1
1 6 8 1
1 6 21 1
1 7 14 1
1 7 22 1
1 8 9 1
1 8 23 1
1 8 24 1
1 9 10 1
1 9 11 1
1 9 12 1
1 9 163 1
1 10 25 1
1 10 26 1
1 10 27 1
1 11 28 1
1 11 29 1
1 11 30 1
1 11 148 1
1 11 150 1
1 11 164 1
1 14 22 1
1 14 27 1
1 17 127 1
1 18 125 1
1 18 127 1
1 22 27 1
1 25 149 1
1 25 162 1
1 30 148 1
1 30 149 1
1 31 32 1
1 31 42 1
1 31 43 1
1 31 44 1
1 32 33 1
1 32 34 1
1 32 41 1
1 33 45 1
1 33 46 1
1 33 47 1
1 33 148 1
1 33 149 1
1 33 161 1
1 34 35 1
1 34 48 1
1 34 49 1
1 35 36 1
1 35 37 1
1 35 50 1
1 36 43 1
1 36 51 1
1 37 38 1
1 37 52 1
1 37 53 1
1 38 39 1
1 38 40 1
1 38 41 1
1 39 54 1
1 39 55 1
1 39 56 1
1 40 57 1
1 40 58 1
1 40 59 1
1 43 51 1
1 43 56 1
1 45 149 1
1 45 161 1
1 46 160 1
1 51 56 1
1 60 61 1
1 60 71 1
1 60 72 1
1 60 73 1
1 61 62 1
1 61 63 1
1 61 70 1
1 61 120 1
1 61 134 1
1 62 74 1
1 62 75 1
1 62 76 1
1 62 119 1
1 62 120 1
1 62 134 1
1 63 64 1
1 63 77 1
1 63 78 1
1 64 65 1
1 64 66 1
1 64 79 1
1 65 72 1
1 65 80 1
1 66 67 1
1 66 81 1
1 66 82 1
1 67 68 1
1 67 69 1
1 67 70 1
1 67 175 1
1 68 83 1
1 68 84 1
1 68 85 1
1 68 156 1
1 68 175 1
1 69 86 1
1 69 87 1
1 69 88 1
1 69 155 1
1 69 170 1
1 72 80 1
1 72 85 1
1 76 119 1
1 76 120 1
1 80 85 1
1 83 156 1
1 83 174 1
1 87 170 1
1 88 154 1
1 89 90 1
1 89 100 1
1 89 101 1
1 89 102 1
1 90 91 1
1 90 92 1
1 90 99 1
1 91 103 1
1 91 104 1
1 91 105 1
1 91 140 1
1 92 93 1
1 92 106 1
1 92 107 1
1 93 94 1
1 93 95 1
1 93 108 1
1 94 101 1
1 94 109 1
1 95 96 1
1 95 110 1
1 95 111 1
1 96 97 1
1 96 98 1
1 96 99 1
1 97 112 1
1 97 113 1
1 97 114 1
1 98 115 1
1 98 116 1
1 98 117 1
1 98 153 1
1 98 169 1
1 101 109 1
1 101 114 1
1 104 140 1
1 109 114 1
1 115 156 1
1 115 173 1
1 118 119 1
1 118 129 1
1 118 130 1
1 118 131 1
1 119 120 1
1 119 121 1
1 119 128 1
1 120 132 1
1 120 133 1
1 120 134 1
1 121 122 1
1 121 135 1
1 121 136 1
1 122 123 1
1 122 124 1
1 122 137 1
1 123 130 1
1 123 138 1
1 124 125 1
1 124 139 1
1 124 140 1
1 125 126 1
1 125 127 1
1 125 128 1
1 126 141 1
1 126 142 1
1 126 143 1
1 127 144 1
1 127 145 1
1 127 146 1
1 130 138 1
1 130 143 1
1 138 143 1
1 147 148 1
1 147 158 1
1 147 159 1
1 147 160 1
1 148 149 1
1 148 150 1
1 148 157 1
1 149 161 1
1 149 162 1
1 149 163 1
1 150 151 1
1 150 164 1
1 150 165 1
1 151 152 1
1 151 153 1
1 151 166 1
1 152 159 1
1 152 167 1
1 153 154 1
1 153 168 1
1 153 169 1
1 154 155 1
1 154 156 1
1 154 157 1
1 155 170 1
1 155 171 1
1 155 172 1
1 156 173 1
1 156 174 1
1 156 175 1
1 159 167 1
1 159 172 1
1 167 172 1
@<TRIPOS>SUBSTRUCTURE
1 RES1 175

