@<TRIPOS>MOLECULE
/Users/abdulahmed/Documents/GitHub/HER-metal-complex-ligands/Runs//2_aminobenzethiol_config2_H2/2_aminobenzethiol_config2_H2
43	46	2
SMALL
PartialCharges
****
Generated from molSimplify

@<TRIPOS>ATOM
1 Ni1	0.0  0.0  0.0 Ni	1 RES1 0.0
2 N1	0.0  2.14  -0.0 N.pl3	1 RES1 0.0
3 C1	1.295354  2.535946  0.000642 C.ar	1 RES1 0.0
4 C2	1.59496  3.913951  0.00128 C.ar	1 RES1 0.0
5 C3	2.908004  4.396882  0.001962 C.ar	1 RES1 0.0
6 C4	3.970795  3.504121  0.002026 C.ar	1 RES1 0.0
7 C5	3.713636  2.133649  0.001408 C.ar	1 RES1 0.0
8 C6	2.395959  1.645394  0.000722 C.ar	1 RES1 0.0
9 S1	2.221738  -0.081738  -0.0 S.3	1 RES1 0.0
10 H1	-0.591525  2.973398  9.2e-05 H	1 RES1 0.0
11 H2	0.775264  4.625902  0.001239 H	1 RES1 0.0
12 H3	3.084059  5.46427  0.002434 H	1 RES1 0.0
13 H4	4.992484  3.858574  0.002549 H	1 RES1 0.0
14 H5	4.54477  1.435948  0.001459 H	1 RES1 0.0
15 N2	0.0  -2.14  0.0 N.pl3	1 RES1 0.0
16 C7	0.000642  -2.535946  1.295354 C.ar	1 RES1 0.0
17 C8	0.00128  -3.913951  1.59496 C.ar	1 RES1 0.0
18 C9	0.001962  -4.396882  2.908004 C.ar	1 RES1 0.0
19 C10	0.002026  -3.504121  3.970795 C.ar	1 RES1 0.0
20 C11	0.001408  -2.133649  3.713636 C.ar	1 RES1 0.0
21 C12	0.000722  -1.645394  2.395959 C.ar	1 RES1 0.0
22 S2	-0.0  0.081738  2.221738 S.3	1 RES1 0.0
23 H6	9.2e-05  -2.973398  -0.591525 H	1 RES1 0.0
24 H7	0.001239  -4.625902  0.775264 H	1 RES1 0.0
25 H8	0.002434  -5.46427  3.084059 H	1 RES1 0.0
26 H9	0.002549  -3.858574  4.992484 H	1 RES1 0.0
27 H10	0.001459  -1.435948  4.54477 H	1 RES1 0.0
28 S3	-2.23  0.0  0.0 S.3	1 RES1 0.0
29 C13	-3.545448  0.22994  -1.221812 C.ar	1 RES1 0.0
30 C14	-4.144688  1.507755  -1.401486 C.ar	1 RES1 0.0
31 C15	-5.380543  1.602454  -2.061977 C.ar	1 RES1 0.0
32 C16	-5.836959  0.588757  -2.737001 C.ar	1 RES1 0.0
33 C17	-5.092152  -0.595534  -2.815459 C.ar	1 RES1 0.0
34 C18	-4.014493  -0.804992  -1.92091 C.ar	1 RES1 0.0
35 N3	-3.422173  -2.141329  -1.765147 N.pl3	1 RES1 0.0
36 H11	-2.781274  -0.22994  1.221812 H	1 RES1 0.0
37 H12	-3.658389  2.388351  -1.036842 H	1 RES1 0.0
38 H13	-5.946768  2.508858  -2.009814 H	1 RES1 0.0
39 H14	-6.782401  0.659223  -3.23306 H	1 RES1 0.0
40 H15	-5.336233  -1.337277  -3.546994 H	1 RES1 0.0
41 H16	-3.787168  -2.926897  -2.303721 H	1 RES1 0.0
42 H17	-2.646181  -2.283015  -1.118494 H	1 RES1 0.0
43 H18	-0.0  0.0  -1.58 H	2 RES2 0.0
@<TRIPOS>BOND
1 1 2 1
1 1 9 1
1 1 15 1
1 1 22 1
1 1 28 1
1 2 3 1
1 2 10 1
1 3 4 2
1 3 8 1
1 4 5 1
1 4 11 1
1 5 6 2
1 5 12 1
1 6 7 1
1 6 13 1
1 7 8 2
1 7 14 1
1 8 9 1
1 15 16 1
1 15 23 1
1 16 17 2
1 16 21 1
1 17 18 1
1 17 24 1
1 18 19 2
1 18 25 1
1 19 20 1
1 19 26 1
1 20 21 2
1 20 27 1
1 21 22 1
1 28 29 1
1 28 36 1
1 29 30 2
1 29 34 1
1 30 31 1
1 30 37 1
1 31 32 2
1 31 38 1
1 32 33 1
1 32 39 1
1 33 34 2
1 33 40 1
1 34 35 1
1 35 41 1
1 35 42 1
@<TRIPOS>SUBSTRUCTURE
1 RES1 42
2 RES2 1

