@<TRIPOS>MOLECULE
/Users/abdulahmed/Documents/GitHub/HER-metal-complex-ligands/Runs//ethanolamine/ethanolamine
28	30	1
SMALL
PartialCharges
****
Generated from molSimplify

@<TRIPOS>ATOM
1 Ni1	0.0  0.0  0.0 Ni	1 RES1 0.0
2 N1	0.0  2.14  0.0 N.3	1 RES1 0.0
3 C1	1.413059  2.308493  0.35559 C.3	1 RES1 0.0
4 C2	2.327527  1.314724  -0.420509 C.3	1 RES1 0.0
5 O1	2.054568  0.085432  -0.0 O.3	1 RES1 0.0
6 H1	-0.141815  1.120356  -0.030803 H	1 RES1 0.0
7 H2	1.560515  2.197396  1.438932 H	1 RES1 0.0
8 H3	1.734131  3.329986  0.112889 H	1 RES1 0.0
9 H4	3.349248  1.694483  -0.25757 H	1 RES1 0.0
10 H5	2.182257  1.546054  -1.488597 H	1 RES1 0.0
11 N2	0.0  -2.14  -0.0 N.3	1 RES1 0.0
12 C3	0.35559  -2.308493  1.413059 C.3	1 RES1 0.0
13 C4	-0.420509  -1.314724  2.327527 C.3	1 RES1 0.0
14 O2	-0.0  -0.085432  2.054568 O.3	1 RES1 0.0
15 H6	-0.030803  -1.120356  -0.141815 H	1 RES1 0.0
16 H7	1.438932  -2.197396  1.560515 H	1 RES1 0.0
17 H8	0.112889  -3.329986  1.734131 H	1 RES1 0.0
18 H9	-0.25757  -1.694483  3.349248 H	1 RES1 0.0
19 H10	-1.488597  -1.546054  2.182257 H	1 RES1 0.0
20 N3	-2.14  0.0  0.0 N.3	1 RES1 0.0
21 C5	-2.308493  0.35559  -1.413059 C.3	1 RES1 0.0
22 C6	-1.314724  -0.420509  -2.327527 C.3	1 RES1 0.0
23 O3	-0.085432  -0.0  -2.054568 O.3	1 RES1 0.0
24 H11	-1.120356  -0.030803  0.141815 H	1 RES1 0.0
25 H12	-2.197396  1.438932  -1.560515 H	1 RES1 0.0
26 H13	-3.329986  0.112889  -1.734131 H	1 RES1 0.0
27 H14	-1.694483  -0.25757  -3.349248 H	1 RES1 0.0
28 H15	-1.546054  -1.488597  -2.182257 H	1 RES1 0.0
@<TRIPOS>BOND
1 1 2 1
1 1 5 1
1 1 11 1
1 1 14 1
1 1 20 1
1 1 23 1
1 2 3 1
1 2 6 1
1 3 4 1
1 3 7 1
1 3 8 1
1 4 5 1
1 4 9 1
1 4 10 1
1 11 12 1
1 11 15 1
1 12 13 1
1 12 16 1
1 12 17 1
1 13 14 1
1 13 18 1
1 13 19 1
1 20 21 1
1 20 24 1
1 21 22 1
1 21 25 1
1 21 26 1
1 22 23 1
1 22 27 1
1 22 28 1
@<TRIPOS>SUBSTRUCTURE
1 RES1 28

