@<TRIPOS>MOLECULE
/Users/abdulahmed/Documents/GitHub/HER-metal-complex-ligands/Runs//catechol_hydride/catechol_hydride
27	28	3
SMALL
PartialCharges
****
Generated from molSimplify

@<TRIPOS>ATOM
1 Ni1	0.0  0.0  0.0 Ni	1 RES1 0.0
2 O1	0.0  2.0  -0.0 O.3	1 RES1 0.0
3 C1	1.228592  2.337865  -0.006565 C.ar	1 RES1 0.0
4 C2	1.646215  3.689778  -0.013981 C.ar	1 RES1 0.0
5 C3	2.988025  4.074508  -0.021217 C.ar	1 RES1 0.0
6 C4	3.965417  3.097117  -0.021217 C.ar	1 RES1 0.0
7 C5	3.580687  1.755306  -0.013981 C.ar	1 RES1 0.0
8 C6	2.228775  1.337682  -0.006565 C.ar	1 RES1 0.0
9 O2	1.89091  0.10909  -0.0 O.3	1 RES1 0.0
10 H1	0.873188  4.453072  -0.01394 H	1 RES1 0.0
11 H2	3.246854  5.123694  -0.026698 H	1 RES1 0.0
12 H3	5.014602  3.355947  -0.026698 H	1 RES1 0.0
13 H4	4.343982  0.982281  -0.01394 H	1 RES1 0.0
14 O3	0.0  -2.0  -0.0 O.3	1 RES1 0.0
15 C7	-0.006565  -2.337865  1.228592 C.ar	1 RES1 0.0
16 C8	-0.013981  -3.689778  1.646215 C.ar	1 RES1 0.0
17 C9	-0.021217  -4.074508  2.988025 C.ar	1 RES1 0.0
18 C10	-0.021217  -3.097117  3.965417 C.ar	1 RES1 0.0
19 C11	-0.013981  -1.755306  3.580687 C.ar	1 RES1 0.0
20 C12	-0.006565  -1.337682  2.228775 C.ar	1 RES1 0.0
21 O4	0.0  -0.10909  1.89091 O.3	1 RES1 0.0
22 H5	-0.01394  -4.453072  0.873188 H	1 RES1 0.0
23 H6	-0.026698  -5.123694  3.246854 H	1 RES1 0.0
24 H7	-0.026698  -3.355947  5.014602 H	1 RES1 0.0
25 H8	-0.01394  -0.982281  4.343982 H	1 RES1 0.0
26 H9	-1.58  0.0  0.0 H	2 RES2 0.0
27 H10	0.0  0.0  -1.58 H	3 RES3 0.0
@<TRIPOS>BOND
1 1 2 1
1 1 9 1
1 1 14 1
1 1 21 1
1 2 3 1
1 3 4 2
1 3 8 1
1 4 5 1
1 4 10 1
1 5 6 2
1 5 11 1
1 6 7 1
1 6 12 1
1 7 8 2
1 7 13 1
1 8 9 1
1 14 15 1
1 15 16 2
1 15 20 1
1 16 17 1
1 16 22 1
1 17 18 2
1 17 23 1
1 18 19 1
1 18 24 1
1 19 20 2
1 19 25 1
1 20 21 1
@<TRIPOS>SUBSTRUCTURE
1 RES1 25
2 RES2 1
3 RES3 1

