@<TRIPOS>MOLECULE
/Users/abdulahmed/Documents/GitHub/HER-metal-complex-ligands/Runs//ni_oct_2_4hydroxy2_2_6_6tetramethylpiperidine_6_s_1/badjob_ni_oct_2_4hydroxy2_2_6_6tetramethylpiperidine_6_s_1_conf_1
181	276	1
SMALL
PartialCharges
****
Generated from molSimplify

@<TRIPOS>ATOM
1 Ni1	0.0  0.0  0.0 Ni	1 RES1 0.0
2 C1	-1.614879  2.771787  -1.787987 C.3	1 RES1 0.0
3 C2	-0.166445  2.868898  -1.337423 C.3	1 RES1 0.0
4 C3	0.708138  2.226361  -2.401684 C.3	1 RES1 0.0
5 C4	0.26346  4.328218  -1.170397 C.3	1 RES1 0.0
6 C5	-0.514555  4.938331  -0.138384 C.3	1 RES1 0.0
7 O1	-1.877153  4.784012  -0.507046 O.3	1 RES1 0.0
8 C6	-0.362885  4.327665  1.144359 C.3	1 RES1 0.0
9 C7	-0.818124  2.868281  1.070966 C.3	1 RES1 0.0
10 C8	-2.294475  2.810455  0.713972 C.3	1 RES1 0.0
11 C9	-0.60172  2.199518  2.418677 C.3	1 RES1 0.0
12 N1	0.0  2.14  0.0 N.4	1 RES1 0.0
13 H1	-2.071706  1.9152  -1.338023 H	1 RES1 0.0
14 H2	-1.651488  2.677297  -2.853178 H	1 RES1 0.0
15 H3	-2.141068  3.654504  -1.489933 H	1 RES1 0.0
16 H4	0.428907  1.200365  -2.521117 H	1 RES1 0.0
17 H5	0.577177  2.74203  -3.330035 H	1 RES1 0.0
18 H6	1.73399  2.284376  -2.103085 H	1 RES1 0.0
19 H7	1.299668  4.367064  -0.906458 H	1 RES1 0.0
20 H8	0.110087  4.852849  -2.090255 H	1 RES1 0.0
21 H9	-0.221793  5.964423  -0.058857 H	1 RES1 0.0
22 H10	-2.098028  3.810561  -0.567108 H	1 RES1 0.0
23 H11	-0.958928  4.851823  1.861919 H	1 RES1 0.0
24 H12	0.665131  4.36635  1.438613 H	1 RES1 0.0
25 H13	-2.609133  1.789085  0.662069 H	1 RES1 0.0
26 H14	-2.86282  3.321128  1.463035 H	1 RES1 0.0
27 H15	-2.450744  3.280446  -0.234495 H	1 RES1 0.0
28 H16	0.437165  2.235998  2.672228 H	1 RES1 0.0
29 H17	-1.169614  2.712351  3.166607 H	1 RES1 0.0
30 H18	-0.920375  1.179432  2.365914 H	1 RES1 0.0
31 H19	0.984569  2.135134  0.266457 H	1 RES1 0.0
32 C10	2.771787  -1.486222  1.89628 C.3	1 RES1 0.0
33 C11	2.868898  -0.072745  1.345776 C.3	1 RES1 0.0
34 C12	2.226361  0.873946  2.346437 C.3	1 RES1 0.0
35 C13	4.328218  0.344461  1.149168 C.3	1 RES1 0.0
36 C14	4.938331  -0.503648  0.17394 C.3	1 RES1 0.0
37 O2	4.784012  -1.837211  0.636754 O.3	1 RES1 0.0
38 C15	4.327665  -0.441828  -1.116258 C.3	1 RES1 0.0
39 C16	2.868281  -0.890838  -1.011288 C.3	1 RES1 0.0
40 C17	2.810455  -2.33869  -0.552178 C.3	1 RES1 0.0
41 C18	2.199518  -0.768973  -2.370812 C.3	1 RES1 0.0
42 N2	2.14  0.0  0.0 N.4	1 RES1 0.0
43 H20	1.9152  -1.973323  1.479278 H	1 RES1 0.0
44 H21	2.677297  -1.448437  2.961429 H	1 RES1 0.0
45 H22	3.654504  -2.03192  1.635657 H	1 RES1 0.0
46 H23	1.200365  0.603726  2.485056 H	1 RES1 0.0
47 H24	2.74203  0.808062  3.281661 H	1 RES1 0.0
48 H25	2.284376  1.87647  1.977005 H	1 RES1 0.0
49 H26	4.367064  1.359733  0.81359 H	1 RES1 0.0
50 H27	4.852849  0.255627  2.077484 H	1 RES1 0.0
51 H28	5.964423  -0.217147  0.074185 H	1 RES1 0.0
52 H29	3.810561  -2.053358  0.712078 H	1 RES1 0.0
53 H30	4.851823  -1.086473  -1.790492 H	1 RES1 0.0
54 H31	4.36635  0.563158  -1.481506 H	1 RES1 0.0
55 H32	1.789085  -2.648961  -0.478452 H	1 RES1 0.0
56 H33	3.321128  -2.957903  -1.259771 H	1 RES1 0.0
57 H34	3.280446  -2.428417  0.404879 H	1 RES1 0.0
58 H35	2.235998  0.249694  -2.696214 H	1 RES1 0.0
59 H36	2.712351  -1.387656  -3.077305 H	1 RES1 0.0
60 H37	1.179432  -1.083171  -2.295949 H	1 RES1 0.0
61 H38	2.135134  0.963584  -0.334488 H	1 RES1 0.0
62 C19	-2.167082  -2.771787  1.052848 C.3	1 RES1 0.0
63 C20	-0.655333  -2.868898  1.177686 C.3	1 RES1 0.0
64 C21	-0.243113  -2.226361  2.492076 C.3	1 RES1 0.0
65 C22	-0.194163  -4.328218  1.183867 C.3	1 RES1 0.0
66 C23	-0.528926  -4.938331  -0.064449 C.3	1 RES1 0.0
67 O3	-1.930409  -4.784012  -0.233069 O.3	1 RES1 0.0
68 C24	0.092223  -4.327665  -1.196971 C.3	1 RES1 0.0
69 C25	-0.357361  -2.868281  -1.299457 C.3	1 RES1 0.0
70 C26	-1.859942  -2.810455  -1.521508 C.3	1 RES1 0.0
71 C27	0.348147  -2.199518  -2.467967 C.3	1 RES1 0.0
72 N3	0.0  -2.14  0.0 N.4	1 RES1 0.0
73 H39	-2.422084  -1.9152  0.464519 H	1 RES1 0.0
74 H40	-2.600052  -2.677297  2.026762 H	1 RES1 0.0
75 H41	-2.543303  -3.654504  0.579384 H	1 RES1 0.0
76 H42	-0.546751  -1.200365  2.49821 H	1 RES1 0.0
77 H43	-0.712304  -2.74203  3.303769 H	1 RES1 0.0
78 H44	0.819898  -2.284376  2.599511 H	1 RES1 0.0
79 H45	0.865466  -4.367064  1.327318 H	1 RES1 0.0
80 H46	-0.680953  -4.852849  1.97929 H	1 RES1 0.0
81 H47	-0.227691  -5.964423  -0.028514 H	1 RES1 0.0
82 H48	-2.1577  -3.810561  -0.260121 H	1 RES1 0.0
83 H49	-0.191615  -4.851823  -2.085561 H	1 RES1 0.0
84 H50	1.155613  -4.36635  -1.084696 H	1 RES1 0.0
85 H51	-2.171131  -1.789085  -1.591258 H	1 RES1 0.0
86 H52	-2.106298  -3.321128  -2.428934 H	1 RES1 0.0
87 H53	-2.360134  -3.280446  -0.700645 H	1 RES1 0.0
88 H54	1.406366  -2.235998  -2.313882 H	1 RES1 0.0
89 H55	0.101784  -2.712351  -3.374172 H	1 RES1 0.0
90 H56	0.03293  -1.179432  -2.538416 H	1 RES1 0.0
91 H57	1.012693  -2.135134  0.121771 H	1 RES1 0.0
92 C28	-2.771787  1.614879  1.787987 C.3	1 RES1 0.0
93 C29	-2.868898  0.166445  1.337423 C.3	1 RES1 0.0
94 C30	-2.226361  -0.708138  2.401684 C.3	1 RES1 0.0
95 C31	-4.328218  -0.26346  1.170397 C.3	1 RES1 0.0
96 C32	-4.938331  0.514555  0.138384 C.3	1 RES1 0.0
97 O4	-4.784012  1.877153  0.507046 O.3	1 RES1 0.0
98 C33	-4.327665  0.362885  -1.144359 C.3	1 RES1 0.0
99 C34	-2.868281  0.818124  -1.070966 C.3	1 RES1 0.0
100 C35	-2.810455  2.294475  -0.713972 C.3	1 RES1 0.0
101 C36	-2.199518  0.60172  -2.418677 C.3	1 RES1 0.0
102 N4	-2.14  0.0  0.0 N.4	1 RES1 0.0
103 H58	-1.9152  2.071706  1.338023 H	1 RES1 0.0
104 H59	-2.677297  1.651488  2.853178 H	1 RES1 0.0
105 H60	-3.654504  2.141068  1.489933 H	1 RES1 0.0
106 H61	-1.200365  -0.428907  2.521117 H	1 RES1 0.0
107 H62	-2.74203  -0.577177  3.330035 H	1 RES1 0.0
108 H63	-2.284376  -1.73399  2.103085 H	1 RES1 0.0
109 H64	-4.367064  -1.299668  0.906458 H	1 RES1 0.0
110 H65	-4.852849  -0.110087  2.090255 H	1 RES1 0.0
111 H66	-5.964423  0.221793  0.058857 H	1 RES1 0.0
112 H67	-3.810561  2.098028  0.567108 H	1 RES1 0.0
113 H68	-4.851823  0.958928  -1.861919 H	1 RES1 0.0
114 H69	-4.36635  -0.665131  -1.438613 H	1 RES1 0.0
115 H70	-1.789085  2.609133  -0.662069 H	1 RES1 0.0
116 H71	-3.321128  2.86282  -1.463035 H	1 RES1 0.0
117 H72	-3.280446  2.450744  0.234495 H	1 RES1 0.0
118 H73	-2.235998  -0.437165  -2.672228 H	1 RES1 0.0
119 H74	-2.712351  1.169614  -3.166607 H	1 RES1 0.0
120 H75	-1.179432  0.920375  -2.365914 H	1 RES1 0.0
121 H76	-2.135134  -0.984569  -0.266457 H	1 RES1 0.0
122 C37	2.403687  -0.164381  2.771787 C.3	1 RES1 0.0
123 C38	1.048783  -0.84644  2.868898 C.3	1 RES1 0.0
124 C39	1.158959  -2.219541  2.226361 C.3	1 RES1 0.0
125 C40	0.623509  -1.024927  4.328218 C.3	1 RES1 0.0
126 C41	0.466269  0.257895  4.938331 C.3	1 RES1 0.0
127 O5	1.702534  0.939242  4.784012 O.3	1 RES1 0.0
128 C42	-0.533901  1.075265  4.327665 C.3	1 RES1 0.0
129 C43	-0.155446  1.338705  2.868281 C.3	1 RES1 0.0
130 C44	1.154541  2.107464  2.810455 C.3	1 RES1 0.0
131 C45	-1.247313  2.157841  2.199518 C.3	1 RES1 0.0
132 N5	0.0  0.0  2.14 N.4	1 RES1 0.0
133 H77	2.419729  0.476634  1.9152 H	1 RES1 0.0
134 H78	3.169964  -0.905184  2.677297 H	1 RES1 0.0
135 H79	2.57515  0.415542  3.654504 H	1 RES1 0.0
136 H80	1.442785  -2.111483  1.200365 H	1 RES1 0.0
137 H81	1.89805  -2.796367  2.74203 H	1 RES1 0.0
138 H82	0.213598  -2.717363  2.284376 H	1 RES1 0.0
139 H83	-0.305224  -1.554877  4.367064 H	1 RES1 0.0
140 H84	1.372824  -1.580076  4.852849 H	1 RES1 0.0
141 H85	0.20043  0.111732  5.964423 H	1 RES1 0.0
142 H86	1.903141  1.049469  3.810561 H	1 RES1 0.0
143 H87	-0.603602  2.005479  4.851823 H	1 RES1 0.0
144 H88	-1.4778  0.572813  4.36635 H	1 RES1 0.0
145 H89	1.416941  2.288709  1.789085 H	1 RES1 0.0
146 H90	1.043031  3.041101  3.321128 H	1 RES1 0.0
147 H91	1.925812  1.533749  3.280446 H	1 RES1 0.0
148 H92	-2.170756  1.61856  2.235998 H	1 RES1 0.0
149 H93	-1.35836  3.090349  2.712351 H	1 RES1 0.0
150 H94	-0.98144  2.341242  1.179432 H	1 RES1 0.0
151 H95	-0.893337  -0.492266  2.135134 H	1 RES1 0.0
152 C46	-0.036594  -2.409023  -2.771787 C.3	1 RES1 0.0
153 C47	0.756053  -1.115701  -2.868898 C.3	1 RES1 0.0
154 C48	2.115188  -1.339973  -2.226361 C.3	1 RES1 0.0
155 C49	0.969375  -0.706789  -4.328218 C.3	1 RES1 0.0
156 C50	-0.295871  -0.443144  -4.938331 C.3	1 RES1 0.0
157 O6	-1.077917  -1.6183  -4.784012 O.3	1 RES1 0.0
158 C51	-1.027008  0.62169  -4.327665 C.3	1 RES1 0.0
159 C52	-1.321085  0.266517  -2.868281 C.3	1 RES1 0.0
160 C53	-2.196385  -0.974816  -2.810455 C.3	1 RES1 0.0
161 C54	-2.046336  1.422876  -2.199518 C.3	1 RES1 0.0
162 N6	0.0  -0.0  -2.14 N.3	1 RES1 0.0
163 H96	-0.676715  -2.371566  -1.9152 H	1 RES1 0.0
164 H97	0.637744  -3.234396  -2.677297 H	1 RES1 0.0
165 H98	-0.628793  -2.531539  -3.654504 H	1 RES1 0.0
166 H99	1.983843  -1.613802  -1.200365 H	1 RES1 0.0
167 H100	2.628386  -2.124583  -2.74203 H	1 RES1 0.0
168 H101	2.690094  -0.439409  -2.284376 H	1 RES1 0.0
169 H102	1.574911  0.174527  -4.367064 H	1 RES1 0.0
170 H103	1.460119  -1.499779  -4.852849 H	1 RES1 0.0
171 H104	-0.128054  -0.190417  -5.964423 H	1 RES1 0.0
172 H105	-1.204485  -1.809018  -3.810561 H	1 RES1 0.0
173 H106	-1.948173  0.768704  -4.851823 H	1 RES1 0.0
174 H107	-0.44761  1.520412  -4.36635 H	1 RES1 0.0
175 H108	-2.398875  -1.221192  -1.789085 H	1 RES1 0.0
176 H109	-3.117474  -0.785854  -3.321128 H	1 RES1 0.0
177 H110	-1.688969  -1.791234  -3.280446 H	1 RES1 0.0
178 H111	-1.431943  2.298142  -2.235998 H	1 RES1 0.0
179 H112	-2.966339  1.611282  -2.712351 H	1 RES1 0.0
180 H113	-2.251265  1.173219  -1.179432 H	1 RES1 0.0
181 H114	0.565032  0.849185  -2.135134 H	1 RES1 0.0
@<TRIPOS>BOND
1 1 12 1
1 1 42 1
1 1 72 1
1 1 102 1
1 1 132 1
1 1 162 1
1 2 3 1
1 2 13 1
1 2 14 1
1 2 15 1
1 2 100 1
1 2 115 1
1 2 161 1
1 2 178 1
1 3 4 1
1 3 5 1
1 3 12 1
1 4 16 1
1 4 17 1
1 4 18 1
1 5 6 1
1 5 19 1
1 5 20 1
1 6 7 1
1 6 8 1
1 6 21 1
1 7 22 1
1 8 9 1
1 8 23 1
1 8 24 1
1 9 10 1
1 9 11 1
1 9 12 1
1 9 131 1
1 9 150 1
1 10 25 1
1 10 26 1
1 10 27 1
1 10 92 1
1 10 100 1
1 10 103 1
1 10 117 1
1 11 28 1
1 11 29 1
1 11 30 1
1 11 129 1
1 11 131 1
1 11 149 1
1 11 150 1
1 12 31 1
1 13 100 1
1 13 161 1
1 13 180 1
1 14 178 1
1 16 181 1
1 22 27 1
1 25 92 1
1 27 100 1
1 28 129 1
1 28 130 1
1 29 131 1
1 29 149 1
1 30 129 1
1 30 131 1
1 32 33 1
1 32 43 1
1 32 44 1
1 32 45 1
1 32 122 1
1 32 134 1
1 33 34 1
1 33 35 1
1 33 42 1
1 33 122 1
1 33 133 1
1 34 46 1
1 34 47 1
1 34 48 1
1 34 122 1
1 34 130 1
1 34 133 1
1 34 147 1
1 35 36 1
1 35 49 1
1 35 50 1
1 36 37 1
1 36 38 1
1 36 51 1
1 37 52 1
1 38 39 1
1 38 53 1
1 38 54 1
1 39 40 1
1 39 41 1
1 39 42 1
1 39 154 1
1 39 166 1
1 40 55 1
1 40 56 1
1 40 57 1
1 40 166 1
1 41 58 1
1 41 59 1
1 41 60 1
1 41 153 1
1 41 154 1
1 41 168 1
1 42 61 1
1 43 124 1
1 43 136 1
1 44 134 1
1 47 122 1
1 47 135 1
1 52 57 1
1 59 154 1
1 59 167 1
1 60 153 1
1 60 154 1
1 62 63 1
1 62 73 1
1 62 74 1
1 62 75 1
1 63 64 1
1 63 65 1
1 63 72 1
1 64 76 1
1 64 77 1
1 64 78 1
1 64 124 1
1 64 138 1
1 65 66 1
1 65 79 1
1 65 80 1
1 66 67 1
1 66 68 1
1 66 81 1
1 67 82 1
1 68 69 1
1 68 83 1
1 68 84 1
1 69 70 1
1 69 71 1
1 69 72 1
1 69 152 1
1 69 163 1
1 70 85 1
1 70 86 1
1 70 87 1
1 71 88 1
1 71 89 1
1 71 90 1
1 71 152 1
1 71 153 1
1 71 163 1
1 71 164 1
1 72 91 1
1 78 124 1
1 78 138 1
1 82 87 1
1 85 175 1
1 88 154 1
1 89 152 1
1 89 165 1
1 90 152 1
1 90 153 1
1 90 162 1
1 92 93 1
1 92 103 1
1 92 104 1
1 92 105 1
1 92 131 1
1 92 148 1
1 93 94 1
1 93 95 1
1 93 102 1
1 94 106 1
1 94 107 1
1 94 108 1
1 95 96 1
1 95 109 1
1 95 110 1
1 96 97 1
1 96 98 1
1 96 111 1
1 97 112 1
1 98 99 1
1 98 113 1
1 98 114 1
1 99 100 1
1 99 101 1
1 99 102 1
1 99 161 1
1 99 180 1
1 100 115 1
1 100 116 1
1 100 117 1
1 101 118 1
1 101 119 1
1 101 120 1
1 101 159 1
1 101 160 1
1 101 161 1
1 101 179 1
1 102 121 1
1 103 131 1
1 104 148 1
1 106 151 1
1 112 117 1
1 118 159 1
1 118 160 1
1 119 161 1
1 119 179 1
1 120 159 1
1 120 161 1
1 122 123 1
1 122 133 1
1 122 134 1
1 122 135 1
1 123 124 1
1 123 125 1
1 123 132 1
1 124 136 1
1 124 137 1
1 124 138 1
1 125 126 1
1 125 139 1
1 125 140 1
1 126 127 1
1 126 128 1
1 126 141 1
1 127 142 1
1 128 129 1
1 128 143 1
1 128 144 1
1 129 130 1
1 129 131 1
1 129 132 1
1 130 145 1
1 130 146 1
1 130 147 1
1 131 148 1
1 131 149 1
1 131 150 1
1 132 151 1
1 142 147 1
1 152 153 1
1 152 163 1
1 152 164 1
1 152 165 1
1 153 154 1
1 153 155 1
1 153 162 1
1 154 166 1
1 154 167 1
1 154 168 1
1 155 156 1
1 155 169 1
1 155 170 1
1 156 157 1
1 156 158 1
1 156 171 1
1 157 172 1
1 158 159 1
1 158 173 1
1 158 174 1
1 159 160 1
1 159 161 1
1 159 162 1
1 160 175 1
1 160 176 1
1 160 177 1
1 161 178 1
1 161 179 1
1 161 180 1
1 162 181 1
1 172 177 1
@<TRIPOS>SUBSTRUCTURE
1 RES1 181

