@<TRIPOS>MOLECULE
/Users/abdulahmed/Documents/GitHub/HER-metal-complex-ligands/Runs//4_hydroxy2_2_6_6_tetramethylpiperidine_hydride/4_hydroxy2_2_6_6_tetramethylpiperidine_hydride
147	173	2
SMALL
PartialCharges
****
Generated from molSimplify

@<TRIPOS>ATOM
1 Ni1	0.0  0.0  0.0 Ni	1 RES1 0.0
2 C1	1.512554  2.918787  0.514651 C.3	1 RES1 0.0
3 C2	0.178501  3.029629  1.234663 C.3	1 RES1 0.0
4 C3	0.213399  3.085692  2.753228 C.3	1 RES1 0.0
5 C4	-1.028565  3.962177  1.359877 C.3	1 RES1 0.0
6 C5	-1.156258  4.738064  0.166441 C.3	1 RES1 0.0
7 O1	0.075826  5.421113  -0.011922 O.3	1 RES1 0.0
8 C6	-1.37171  3.961665  -1.013445 C.3	1 RES1 0.0
9 C7	-0.178501  3.029063  -1.234663 C.3	1 RES1 0.0
10 C8	1.079507  3.852381  -1.458182 C.3	1 RES1 0.0
11 C9	-0.431965  2.159503  -2.455328 C.3	1 RES1 0.0
12 N1	0.0  2.14  0.0 N.3	1 RES1 0.0
13 H1	1.344049  2.848213  -0.539638 H	1 RES1 0.0
14 H2	2.028729  2.044592  0.852653 H	1 RES1 0.0
15 H3	2.103988  3.78553  0.724086 H	1 RES1 0.0
16 H4	0.670522  2.195732  3.132585 H	1 RES1 0.0
17 H5	0.779239  3.938367  3.065751 H	1 RES1 0.0
18 H6	-0.784998  3.162442  3.130338 H	1 RES1 0.0
19 H7	-1.915219  3.380883  1.504248 H	1 RES1 0.0
20 H8	-0.890036  4.614673  2.196512 H	1 RES1 0.0
21 H9	-1.984619  5.404714  0.286003 H	1 RES1 0.0
22 H10	0.813925  4.754881  -0.118433 H	1 RES1 0.0
23 H11	-1.476165  4.613514  -1.855515 H	1 RES1 0.0
24 H12	-2.262779  3.380233  -0.900164 H	1 RES1 0.0
25 H13	1.911837  3.197582  -1.611041 H	1 RES1 0.0
26 H14	0.951037  4.473132  -2.320194 H	1 RES1 0.0
27 H15	1.261218  4.466003  -0.600657 H	1 RES1 0.0
28 H16	-1.315634  1.576345  -2.30055 H	1 RES1 0.0
29 H17	-0.561599  2.781943  -3.315946 H	1 RES1 0.0
30 H18	0.402916  1.508097  -2.608771 H	1 RES1 0.0
31 C10	2.918787  -0.875058  1.336772 C.3	1 RES1 0.0
32 C11	3.029629  0.619474  1.082825 C.3	1 RES1 0.0
33 C12	3.085692  1.526896  2.300955 C.3	1 RES1 0.0
34 C13	3.962177  1.647744  0.43835 C.3	1 RES1 0.0
35 C14	4.738064  1.013615  -0.580706 C.3	1 RES1 0.0
36 O2	5.421113  -0.067091  0.037289 O.3	1 RES1 0.0
37 C15	3.961665  0.456983  -1.643114 C.3	1 RES1 0.0
38 C16	3.029063  -0.619474  -1.082825 C.3	1 RES1 0.0
39 C17	3.852381  -1.74841  -0.484452 C.3	1 RES1 0.0
40 C18	2.159503  -1.171258  -2.200769 C.3	1 RES1 0.0
41 N2	2.14  0.0  0.0 N.3	1 RES1 0.0
42 H19	2.848213  -1.39136  0.402239 H	1 RES1 0.0
43 H20	2.044592  -1.073715  1.92091 H	1 RES1 0.0
44 H21	3.78553  -1.212174  1.865932 H	1 RES1 0.0
45 H22	2.195732  1.400233  2.881325 H	1 RES1 0.0
46 H23	3.938367  1.273416  2.895592 H	1 RES1 0.0
47 H24	3.162442  2.545816  1.983447 H	1 RES1 0.0
48 H25	3.380883  2.43532  0.006237 H	1 RES1 0.0
49 H26	4.614673  2.053666  1.182914 H	1 RES1 0.0
50 H27	5.404714  1.739983  -0.99648 H	1 RES1 0.0
51 H28	4.754881  -0.714296  0.407776 H	1 RES1 0.0
52 H29	4.613514  0.020865  -2.370983 H	1 RES1 0.0
53 H30	3.380233  1.228898  -2.102445 H	1 RES1 0.0
54 H31	3.197582  -2.498404  -0.092473 H	1 RES1 0.0
55 H32	4.473132  -2.177881  -1.242821 H	1 RES1 0.0
56 H33	4.466003  -1.363655  0.303159 H	1 RES1 0.0
57 H34	1.576345  -0.379627  -2.622844 H	1 RES1 0.0
58 H35	2.781943  -1.598954  -2.958756 H	1 RES1 0.0
59 H36	1.508097  -1.923622  -1.80768 H	1 RES1 0.0
60 C19	-1.209624  -2.918787  1.043789 C.3	1 RES1 0.0
61 C20	0.297009  -3.029629  1.211628 C.3	1 RES1 0.0
62 C21	0.833517  -3.085692  2.632689 C.3	1 RES1 0.0
63 C22	1.463088  -3.962177  0.875549 C.3	1 RES1 0.0
64 C23	1.134414  -4.738064  -0.27882 C.3	1 RES1 0.0
65 O3	-0.07477  -5.421113  0.017351 O.3	1 RES1 0.0
66 C24	0.892184  -3.961665  -1.453501 C.3	1 RES1 0.0
67 C25	-0.297009  -3.029063  -1.211628 C.3	1 RES1 0.0
68 C26	-1.547146  -3.852381  -0.947612 C.3	1 RES1 0.0
69 C27	-0.519271  -2.159503  -2.438357 C.3	1 RES1 0.0
70 N3	0.0  -2.14  0.0 N.3	1 RES1 0.0
71 H37	-1.448333  -2.848213  0.003146 H	1 RES1 0.0
72 H38	-1.561595  -2.044592  1.550542 H	1 RES1 0.0
73 H39	-1.679537  -3.78553  1.459529 H	1 RES1 0.0
74 H40	0.55179  -2.195732  3.155664 H	1 RES1 0.0
75 H41	0.425952  -3.938367  3.134423 H	1 RES1 0.0
76 H42	1.900483  -3.162442  2.608334 H	1 RES1 0.0
77 H43	2.339261  -3.380883  0.677261 H	1 RES1 0.0
78 H44	1.648055  -4.614673  1.703157 H	1 RES1 0.0
79 H45	1.947246  -5.404714  -0.478274 H	1 RES1 0.0
80 H46	-0.799024  -4.754881  0.195093 H	1 RES1 0.0
81 H47	0.673588  -4.613514  -2.273385 H	1 RES1 0.0
82 H48	1.760805  -3.380233  -1.68227 H	1 RES1 0.0
83 H49	-2.376131  -3.197582  -0.777544 H	1 RES1 0.0
84 H50	-1.750946  -4.473132  -1.794981 H	1 RES1 0.0
85 H51	-1.394392  -4.466003  -0.084459 H	1 RES1 0.0
86 H52	0.358033  -1.576345  -2.625878 H	1 RES1 0.0
87 H53	-0.721469  -2.781943  -3.28487 H	1 RES1 0.0
88 H54	-1.35084  -1.508097  -2.267875 H	1 RES1 0.0
89 C28	-2.918787  -1.426208  -0.720149 C.3	1 RES1 0.0
90 C29	-3.029629  -0.004932  -1.24749 C.3	1 RES1 0.0
91 C30	-3.085692  0.171853  -2.756133 C.3	1 RES1 0.0
92 C31	-3.962177  1.207813  -1.203494 C.3	1 RES1 0.0
93 C32	-4.738064  1.168169  -0.003901 C.3	1 RES1 0.0
94 O4	-5.421113  -0.076747  0.001253 O.3	1 RES1 0.0
95 C33	-3.961665  1.217316  1.194487 C.3	1 RES1 0.0
96 C34	-3.029063  0.004932  1.24749 C.3	1 RES1 0.0
97 C35	-3.852381  -1.271941  1.293753 C.3	1 RES1 0.0
98 C36	-2.159503  0.086045  2.491551 C.3	1 RES1 0.0
99 N4	-2.14  0.0  0.0 N.3	1 RES1 0.0
100 H55	-2.848213  -1.406072  0.347331 H	1 RES1 0.0
101 H56	-2.044592  -1.890319  -1.1267 H	1 RES1 0.0
102 H57	-3.78553  -1.982739  -1.009858 H	1 RES1 0.0
103 H58	-2.195732  -0.228025  -3.195417 H	1 RES1 0.0
104 H59	-3.938367  -0.344986  -3.144364 H	1 RES1 0.0
105 H60	-3.162442  1.213017  -2.990624 H	1 RES1 0.0
106 H61	-3.380883  2.105931  -1.223062 H	1 RES1 0.0
107 H62	-4.614673  1.18707  -2.051267 H	1 RES1 0.0
108 H63	-5.404714  2.005109  -0.007014 H	1 RES1 0.0
109 H64	-4.754881  -0.822486  0.004004 H	1 RES1 0.0
110 H65	-4.613514  1.203561  2.0429 H	1 RES1 0.0
111 H66	-3.380233  2.115479  1.206322 H	1 RES1 0.0
112 H67	-3.197582  -2.117445  1.329286 H	1 RES1 0.0
113 H68	-4.473132  -1.26469  2.165255 H	1 RES1 0.0
114 H69	-4.466003  -1.33254  0.419284 H	1 RES1 0.0
115 H70	-1.576345  0.982656  2.461263 H	1 RES1 0.0
116 H71	-2.781943  0.094643  3.361835 H	1 RES1 0.0
117 H72	-1.508097  -0.762066  2.527308 H	1 RES1 0.0
118 C37	1.366497  0.827872  2.918787 C.3	1 RES1 0.0
119 C38	1.060546  -0.656886  3.029629 C.3	1 RES1 0.0
120 C39	2.246266  -1.606268  3.085692 C.3	1 RES1 0.0
121 C40	0.380577  -1.662039  3.962177 C.3	1 RES1 0.0
122 C41	-0.615727  -0.992731  4.738064 C.3	1 RES1 0.0
123 O5	0.039607  0.065749  5.421113 O.3	1 RES1 0.0
124 C42	-1.658062  -0.399361  3.961665 C.3	1 RES1 0.0
125 C43	-1.060546  0.656886  3.029063 C.3	1 RES1 0.0
126 C44	-0.423138  1.764252  3.852381 C.3	1 RES1 0.0
127 C45	-2.158552  1.24735  2.159503 C.3	1 RES1 0.0
128 N5	0.0  0.0  2.14 N.3	1 RES1 0.0
129 H73	0.450551  1.376474  2.848213 H	1 RES1 0.0
130 H74	1.957212  1.006022  2.044592 H	1 RES1 0.0
131 H75	1.9071  1.146315  3.78553 H	1 RES1 0.0
132 H76	2.830702  -1.499937  2.195732 H	1 RES1 0.0
133 H77	2.849387  -1.373695  3.938367 H	1 RES1 0.0
134 H78	1.893391  -2.613486  3.162442 H	1 RES1 0.0
135 H79	-0.078758  -2.434055  3.380883 H	1 RES1 0.0
136 H80	1.110522  -2.093698  4.614673 H	1 RES1 0.0
137 H81	-1.056598  -1.704146  5.404714 H	1 RES1 0.0
138 H82	0.432456  0.69963  4.754881 H	1 RES1 0.0
139 H83	-2.370267  0.061894  4.613514 H	1 RES1 0.0
140 H84	-2.144052  -1.154775  3.380233 H	1 RES1 0.0
141 H85	-0.005224  2.500109  3.197582 H	1 RES1 0.0
142 H86	-1.166057  2.219929  4.473132 H	1 RES1 0.0
143 H87	0.350565  1.352244  4.466003 H	1 RES1 0.0
144 H88	-2.607997  0.470931  1.576345 H	1 RES1 0.0
145 H89	-2.901151  1.701239  2.781943 H	1 RES1 0.0
146 H90	-1.739445  1.985537  1.508097 H	1 RES1 0.0
147 H91	-0.0  0.0  -1.58 H	2 RES2 0.0
@<TRIPOS>BOND
1 1 12 1
1 1 41 1
1 1 70 1
1 1 99 1
1 1 128 1
1 2 3 1
1 2 13 1
1 2 14 1
1 2 15 1
1 3 4 1
1 3 5 1
1 3 12 1
1 4 16 1
1 4 17 1
1 4 18 1
1 4 141 1
1 5 6 1
1 5 19 1
1 5 20 1
1 6 7 1
1 6 8 1
1 6 21 1
1 7 22 1
1 8 9 1
1 8 23 1
1 8 24 1
1 9 10 1
1 9 11 1
1 9 12 1
1 10 25 1
1 10 26 1
1 10 27 1
1 11 28 1
1 11 29 1
1 11 30 1
1 16 141 1
1 22 27 1
1 31 32 1
1 31 42 1
1 31 43 1
1 31 44 1
1 31 132 1
1 32 33 1
1 32 34 1
1 32 41 1
1 33 45 1
1 33 46 1
1 33 47 1
1 33 130 1
1 34 35 1
1 34 48 1
1 34 49 1
1 35 36 1
1 35 37 1
1 35 50 1
1 36 51 1
1 37 38 1
1 37 52 1
1 37 53 1
1 38 39 1
1 38 40 1
1 38 41 1
1 39 54 1
1 39 55 1
1 39 56 1
1 40 57 1
1 40 58 1
1 40 59 1
1 43 120 1
1 45 118 1
1 51 56 1
1 60 61 1
1 60 71 1
1 60 72 1
1 60 73 1
1 61 62 1
1 61 63 1
1 61 70 1
1 62 74 1
1 62 75 1
1 62 76 1
1 62 134 1
1 63 64 1
1 63 77 1
1 63 78 1
1 64 65 1
1 64 66 1
1 64 79 1
1 65 80 1
1 66 67 1
1 66 81 1
1 66 82 1
1 67 68 1
1 67 69 1
1 67 70 1
1 68 83 1
1 68 84 1
1 68 85 1
1 69 86 1
1 69 87 1
1 69 88 1
1 74 121 1
1 74 135 1
1 76 134 1
1 80 85 1
1 89 90 1
1 89 100 1
1 89 101 1
1 89 102 1
1 90 91 1
1 90 92 1
1 90 99 1
1 91 103 1
1 91 104 1
1 91 105 1
1 92 93 1
1 92 106 1
1 92 107 1
1 93 94 1
1 93 95 1
1 93 108 1
1 94 109 1
1 95 96 1
1 95 110 1
1 95 111 1
1 96 97 1
1 96 98 1
1 96 99 1
1 96 127 1
1 96 144 1
1 97 112 1
1 97 113 1
1 97 114 1
1 98 115 1
1 98 116 1
1 98 117 1
1 98 124 1
1 98 125 1
1 98 127 1
1 98 144 1
1 109 114 1
1 115 125 1
1 115 127 1
1 118 119 1
1 118 129 1
1 118 130 1
1 118 131 1
1 119 120 1
1 119 121 1
1 119 128 1
1 120 132 1
1 120 133 1
1 120 134 1
1 121 122 1
1 121 135 1
1 121 136 1
1 122 123 1
1 122 124 1
1 122 137 1
1 123 138 1
1 124 125 1
1 124 139 1
1 124 140 1
1 125 126 1
1 125 127 1
1 125 128 1
1 126 141 1
1 126 142 1
1 126 143 1
1 127 144 1
1 127 145 1
1 127 146 1
1 138 143 1
@<TRIPOS>SUBSTRUCTURE
1 RES1 146
2 RES2 1

