@<TRIPOS>MOLECULE
/Users/abdulahmed/Documents/GitHub/HER-metal-complex-ligands/Runs//ni_oct_2_2aminobenzethiol_2_hydride_2_s_1/badjob_ni_oct_2_2aminobenzethiol_2_hydride_2_s_1_conf_1
33	35	3
SMALL
PartialCharges
****
Generated from molSimplify

@<TRIPOS>ATOM
1 Ni1	0.0  0.0  0.0 Ni	1 RES1 0.0
2 N1	0.0  2.14  0.0 N.pl3	1 RES1 0.0
3 C1	1.32625  2.617955  -0.04351 C.ar	1 RES1 0.0
4 C2	1.563402  3.991277  0.084377 C.ar	1 RES1 0.0
5 C3	2.867415  4.487619  0.152581 C.ar	1 RES1 0.0
6 C4	3.949581  3.611133  0.135776 C.ar	1 RES1 0.0
7 C5	3.72813  2.235521  0.074525 C.ar	1 RES1 0.0
8 C6	2.422464  1.735267  0.012934 C.ar	1 RES1 0.0
9 S1	2.175161  -0.035161  0.0 S.3	1 RES1 0.0
10 H1	-0.67309  2.797874  -0.381249 H	1 RES1 0.0
11 H2	-0.07912  1.223447  -0.436584 H	1 RES1 0.0
12 H3	0.730921  4.688582  0.127473 H	1 RES1 0.0
13 H4	3.036116  5.558675  0.230704 H	1 RES1 0.0
14 H5	4.964457  3.996358  0.191723 H	1 RES1 0.0
15 H6	4.578174  1.557905  0.091779 H	1 RES1 0.0
16 H7	1.250066  -0.030528  0.972238 H	1 RES1 0.0
17 N2	0.0  -2.14  0.0 N.pl3	1 RES1 0.0
18 C7	-0.04351  -2.617955  1.32625 C.ar	1 RES1 0.0
19 C8	0.084377  -3.991277  1.563402 C.ar	1 RES1 0.0
20 C9	0.152581  -4.487619  2.867415 C.ar	1 RES1 0.0
21 C10	0.135776  -3.611133  3.949581 C.ar	1 RES1 0.0
22 C11	0.074525  -2.235521  3.72813 C.ar	1 RES1 0.0
23 C12	0.012934  -1.735267  2.422464 C.ar	1 RES1 0.0
24 S2	-0.0  0.035161  2.175161 S.3	1 RES1 0.0
25 H8	-0.381249  -2.797874  -0.67309 H	1 RES1 0.0
26 H9	-0.436584  -1.223447  -0.07912 H	1 RES1 0.0
27 H10	0.127473  -4.688582  0.730921 H	1 RES1 0.0
28 H11	0.230704  -5.558675  3.036116 H	1 RES1 0.0
29 H12	0.191723  -3.996358  4.964457 H	1 RES1 0.0
30 H13	0.091779  -1.557905  4.578174 H	1 RES1 0.0
31 H14	0.972238  0.030528  1.250066 H	1 RES1 0.0
32 H15	-1.58  0.0  0.0 H	2 RES2 0.0
33 H16	0.0  0.0  -1.58 H	3 RES3 0.0
@<TRIPOS>BOND
1 1 2 1
1 1 9 1
1 1 17 1
1 1 24 1
1 2 3 1
1 2 10 1
1 2 11 1
1 3 4 2
1 3 8 1
1 4 5 1
1 4 12 1
1 5 6 2
1 5 13 1
1 6 7 1
1 6 14 1
1 7 8 2
1 7 15 1
1 8 9 1
1 9 16 1
1 16 31 1
1 17 18 1
1 17 25 1
1 17 26 1
1 18 19 2
1 18 23 1
1 19 20 1
1 19 27 1
1 20 21 2
1 20 28 1
1 21 22 1
1 21 29 1
1 22 23 2
1 22 30 1
1 23 24 1
1 24 31 1
@<TRIPOS>SUBSTRUCTURE
1 RES1 31
2 RES2 1
3 RES3 1

