@<TRIPOS>MOLECULE
/home/jovyan/shared-scratch-kabdelma-pvc/kabdelma/HER-metal-complex-ligands/data_molsimplify/Ligands/Runs//fe_oct_2_water_6_s_5/fe_oct_2_water_6_s_5_conf_1
19	18	1
SMALL
PartialCharges
****
Generated from molSimplify

@<TRIPOS>ATOM
1 Fe1	0.0  0.0  0.0 Fe	1 RES1 0.0
2 O1	0.0  2.12  0.0 O.3	1 RES1 0.0
3 H1	0.685027  2.726198  -0.379294 H	1 RES1 0.0
4 H2	-0.685027  2.726184  0.379294 H	1 RES1 0.0
5 O2	2.12  0.0  0.0 O.3	1 RES1 0.0
6 H3	2.726198  -0.671373  -0.40297 H	1 RES1 0.0
7 H4	2.726184  0.671373  0.40297 H	1 RES1 0.0
8 O3	0.0  -2.12  0.0 O.3	1 RES1 0.0
9 H5	-0.6569  -2.726198  -0.426155 H	1 RES1 0.0
10 H6	0.6569  -2.726184  0.426155 H	1 RES1 0.0
11 O4	-2.12  0.0  0.0 O.3	1 RES1 0.0
12 H7	-2.726198  0.641627  -0.448821 H	1 RES1 0.0
13 H8	-2.726184  -0.641627  0.448821 H	1 RES1 0.0
14 O5	0.0  0.0  2.12 O.3	1 RES1 0.0
15 H9	-0.47094  0.625573  2.726198 H	1 RES1 0.0
16 H10	0.47094  -0.625573  2.726184 H	1 RES1 0.0
17 O6	0.0  0.0  -2.12 O.3	1 RES1 0.0
18 H11	0.492486  0.608756  -2.726198 H	1 RES1 0.0
19 H12	-0.492486  -0.608756  -2.726184 H	1 RES1 0.0
@<TRIPOS>BOND
1 1 2 1
1 1 5 1
1 1 8 1
1 1 11 1
1 1 14 1
1 1 17 1
1 2 3 1
1 2 4 1
1 5 6 1
1 5 7 1
1 8 9 1
1 8 10 1
1 11 12 1
1 11 13 1
1 14 15 1
1 14 16 1
1 17 18 1
1 17 19 1
@<TRIPOS>SUBSTRUCTURE
1 RES1 19

