@<TRIPOS>MOLECULE
/Users/abdulahmed/Documents/GitHub/HER-metal-complex-ligands/Runs//ni_oct_2_1_10phenanthroline_anhyd_2_hydride_2_s_1/ni_oct_2_1_10phenanthroline_anhyd_2_hydride_2_s_1_conf_1
47	52	3
SMALL
PartialCharges
****
Generated from molSimplify

@<TRIPOS>ATOM
1 Ni1	0.0  0.0  0.0 Ni	1 RES1 0.0
2 C1	-0.673146  4.45263  -0.013714 C.2	1 RES1 0.0
3 C2	-0.948547  3.100018  -0.00011 C.2	1 RES1 0.0
4 N1	0.0  2.14  0.0 N.pl3	1 RES1 0.0
5 C3	1.296201  2.510961  -0.01392 C.ar	1 RES1 0.0
6 C4	1.671305  3.874906  -0.028447 C.ar	1 RES1 0.0
7 C5	0.659046  4.844312  -0.028101 C.2	1 RES1 0.0
8 C6	3.023051  4.239561  -0.042777 C.ar	1 RES1 0.0
9 C7	4.00573  3.256881  -0.042776 C.ar	1 RES1 0.0
10 C8	3.641073  1.905136  -0.028447 C.ar	1 RES1 0.0
11 C9	4.610478  0.892875  -0.0281 C.2	1 RES1 0.0
12 C10	4.218793  -0.439316  -0.013713 C.2	1 RES1 0.0
13 C11	2.86618  -0.714714  -0.000109 C.2	1 RES1 0.0
14 N2	1.906165  0.233835  0.0 N.pl3	1 RES1 0.0
15 C12	2.277127  1.530034  -0.01392 C.ar	1 RES1 0.0
16 H1	-1.474668  5.182102  -0.013126 H	1 RES1 0.0
17 H2	-1.97129  2.734217  0.01148 H	1 RES1 0.0
18 H3	0.901786  5.903756  -0.038982 H	1 RES1 0.0
19 H4	3.316751  5.2867  -0.053974 H	1 RES1 0.0
20 H5	5.052869  3.55058  -0.053974 H	1 RES1 0.0
21 H6	5.669922  1.135613  -0.038981 H	1 RES1 0.0
22 H7	4.948264  -1.240839  -0.013125 H	1 RES1 0.0
23 H8	2.500378  -1.737456  0.01148 H	1 RES1 0.0
24 C13	-0.013714  -4.45263  -0.673146 C.2	1 RES1 0.0
25 C14	-0.00011  -3.100018  -0.948547 C.2	1 RES1 0.0
26 N3	0.0  -2.14  0.0 N.pl3	1 RES1 0.0
27 C15	-0.01392  -2.510961  1.296201 C.ar	1 RES1 0.0
28 C16	-0.028447  -3.874906  1.671305 C.ar	1 RES1 0.0
29 C17	-0.028101  -4.844312  0.659046 C.2	1 RES1 0.0
30 C18	-0.042777  -4.239561  3.023051 C.ar	1 RES1 0.0
31 C19	-0.042776  -3.256881  4.00573 C.ar	1 RES1 0.0
32 C20	-0.028447  -1.905136  3.641073 C.ar	1 RES1 0.0
33 C21	-0.0281  -0.892875  4.610478 C.2	1 RES1 0.0
34 C22	-0.013713  0.439316  4.218793 C.2	1 RES1 0.0
35 C23	-0.000109  0.714714  2.86618 C.2	1 RES1 0.0
36 N4	-0.0  -0.233835  1.906165 N.pl3	1 RES1 0.0
37 C24	-0.01392  -1.530034  2.277127 C.ar	1 RES1 0.0
38 H9	-0.013126  -5.182102  -1.474668 H	1 RES1 0.0
39 H10	0.01148  -2.734217  -1.97129 H	1 RES1 0.0
40 H11	-0.038982  -5.903756  0.901786 H	1 RES1 0.0
41 H12	-0.053974  -5.2867  3.316751 H	1 RES1 0.0
42 H13	-0.053974  -3.55058  5.052869 H	1 RES1 0.0
43 H14	-0.038981  -1.135613  5.669922 H	1 RES1 0.0
44 H15	-0.013125  1.240839  4.948264 H	1 RES1 0.0
45 H16	0.01148  1.737456  2.500378 H	1 RES1 0.0
46 H17	-1.58  0.0  0.0 H	2 RES2 0.0
47 H18	0.0  0.0  -1.58 H	3 RES3 0.0
@<TRIPOS>BOND
1 1 4 1
1 1 14 1
1 1 26 1
1 1 36 1
1 2 3 2
1 2 7 1
1 2 16 1
1 3 4 1
1 3 17 1
1 4 5 1
1 5 6 1
1 5 15 2
1 6 7 2
1 6 8 1
1 7 18 1
1 8 9 2
1 8 19 1
1 9 10 1
1 9 20 1
1 10 11 2
1 10 15 1
1 11 12 1
1 11 21 1
1 12 13 2
1 12 22 1
1 13 14 1
1 13 23 1
1 14 15 1
1 24 25 2
1 24 29 1
1 24 38 1
1 25 26 1
1 25 39 1
1 26 27 1
1 27 28 1
1 27 37 2
1 28 29 2
1 28 30 1
1 29 40 1
1 30 31 2
1 30 41 1
1 31 32 1
1 31 42 1
1 32 33 2
1 32 37 1
1 33 34 1
1 33 43 1
1 34 35 2
1 34 44 1
1 35 36 1
1 35 45 1
1 36 37 1
@<TRIPOS>SUBSTRUCTURE
1 RES1 45
2 RES2 1
3 RES3 1

