@<TRIPOS>MOLECULE
/Users/abdulahmed/Documents/GitHub/HER-metal-complex-ligands/Runs//ni_oct_2_2_2bipyridyl_2_hydride_2_s_1/ni_oct_2_2_2bipyridyl_2_hydride_2_s_1_conf_1
43	46	3
SMALL
PartialCharges
****
Generated from molSimplify

@<TRIPOS>ATOM
1 Ni1	0.0  0.0  0.0 Ni	1 RES1 0.0
2 C1	-0.830187  4.400863  0.008144 C.2	1 RES1 0.0
3 C2	0.470929  4.881041  0.018304 C.2	1 RES1 0.0
4 C3	1.535971  3.97862  0.01924 C.2	1 RES1 0.0
5 C4	1.277779  2.60558  0.009942 C.2	1 RES1 0.0
6 N1	-0.0  2.14  0.0 N.pl3	1 RES1 0.0
7 C5	-1.013105  3.031814  -0.0007 C.2	1 RES1 0.0
8 C6	2.326324  1.557035  0.009943 C.2	1 RES1 0.0
9 C7	3.699364  1.815228  0.019242 C.2	1 RES1 0.0
10 C8	4.601787  0.750189  0.018308 C.2	1 RES1 0.0
11 C9	4.12161  -0.550929  0.008147 C.2	1 RES1 0.0
12 C10	2.752561  -0.733849  -0.000698 C.2	1 RES1 0.0
13 N2	1.860745  0.279255  0.0 N.pl3	1 RES1 0.0
14 H1	-1.679691  5.073813  0.007129 H	1 RES1 0.0
15 H2	0.659923  5.950769  0.025477 H	1 RES1 0.0
16 H3	2.545747  4.370219  0.027232 H	1 RES1 0.0
17 H4	-2.007945  2.596366  -0.008858 H	1 RES1 0.0
18 H5	4.090961  2.825006  0.027235 H	1 RES1 0.0
19 H6	5.671514  0.939184  0.025483 H	1 RES1 0.0
20 H7	4.794561  -1.400431  0.007134 H	1 RES1 0.0
21 H8	2.317115  -1.72869  -0.008857 H	1 RES1 0.0
22 C11	0.008144  -4.400863  -0.830187 C.2	1 RES1 0.0
23 C12	0.018304  -4.881041  0.470929 C.2	1 RES1 0.0
24 C13	0.01924  -3.97862  1.535971 C.2	1 RES1 0.0
25 C14	0.009942  -2.60558  1.277779 C.2	1 RES1 0.0
26 N3	-0.0  -2.14  0.0 N.pl3	1 RES1 0.0
27 C15	-0.0007  -3.031814  -1.013105 C.2	1 RES1 0.0
28 C16	0.009943  -1.557035  2.326324 C.2	1 RES1 0.0
29 C17	0.019242  -1.815228  3.699364 C.2	1 RES1 0.0
30 C18	0.018308  -0.750189  4.601787 C.2	1 RES1 0.0
31 C19	0.008147  0.550929  4.12161 C.2	1 RES1 0.0
32 C20	-0.000698  0.733849  2.752561 C.2	1 RES1 0.0
33 N4	-0.0  -0.279255  1.860745 N.pl3	1 RES1 0.0
34 H9	0.007129  -5.073813  -1.679691 H	1 RES1 0.0
35 H10	0.025477  -5.950769  0.659923 H	1 RES1 0.0
36 H11	0.027232  -4.370219  2.545747 H	1 RES1 0.0
37 H12	-0.008858  -2.596366  -2.007945 H	1 RES1 0.0
38 H13	0.027235  -2.825006  4.090961 H	1 RES1 0.0
39 H14	0.025483  -0.939184  5.671514 H	1 RES1 0.0
40 H15	0.007134  1.400431  4.794561 H	1 RES1 0.0
41 H16	-0.008857  1.72869  2.317115 H	1 RES1 0.0
42 H17	-1.58  0.0  0.0 H	2 RES2 0.0
43 H18	0.0  0.0  -1.58 H	3 RES3 0.0
@<TRIPOS>BOND
1 1 6 1
1 1 13 1
1 1 26 1
1 1 33 1
1 2 3 1
1 2 7 2
1 2 14 1
1 3 4 2
1 3 15 1
1 4 5 1
1 4 16 1
1 5 6 1
1 5 8 2
1 6 7 1
1 7 17 1
1 8 9 1
1 8 13 1
1 9 10 2
1 9 18 1
1 10 11 1
1 10 19 1
1 11 12 2
1 11 20 1
1 12 13 1
1 12 21 1
1 22 23 1
1 22 27 2
1 22 34 1
1 23 24 2
1 23 35 1
1 24 25 1
1 24 36 1
1 25 26 1
1 25 28 2
1 26 27 1
1 27 37 1
1 28 29 1
1 28 33 1
1 29 30 2
1 29 38 1
1 30 31 1
1 30 39 1
1 31 32 2
1 31 40 1
1 32 33 1
1 32 41 1
@<TRIPOS>SUBSTRUCTURE
1 RES1 41
2 RES2 1
3 RES3 1

