@<TRIPOS>MOLECULE
/Users/abdulahmed/Documents/GitHub/HER-metal-complex-ligands/Runs//ethyl_piperidine_3_carboxylate/ethyl_piperidine_3_carboxylate
151	158	1
SMALL
PartialCharges
****
Generated from molSimplify

@<TRIPOS>ATOM
1 Ni1	0.0  0.0  0.0 Ni	1 RES1 0.0
2 C1	-3.683949  2.841029  -3.488524 C.3	1 RES1 0.0
3 C2	-2.399667  2.642019  -4.276822 C.3	1 RES1 0.0
4 O1	-1.288175  2.709188  -3.395645 O.3	1 RES1 0.0
5 C3	-1.04924  3.889266  -2.642832 C.2	1 RES1 0.0
6 O2	-1.830179  4.885319  -2.757718 O.2	1 RES1 0.0
7 C4	0.140526  3.961164  -1.6996 C.3	1 RES1 0.0
8 C5	-0.822821  4.776716  -0.834053 C.3	1 RES1 0.0
9 C6	-1.663967  3.889941  -0.093312 C.3	1 RES1 0.0
10 C7	-0.957917  3.02637  0.799484 C.3	1 RES1 0.0
11 N1	0.0  2.14  0.0 N.3	1 RES1 0.0
12 C8	0.957917  3.028769  -0.799484 C.3	1 RES1 0.0
13 H1	-3.769769  2.07436  -2.74707 H	1 RES1 0.0
14 H2	-4.521482  2.790415  -4.15251 H	1 RES1 0.0
15 H3	-3.664666  3.798404  -3.01107 H	1 RES1 0.0
16 H4	-2.418953  1.684645  -4.754276 H	1 RES1 0.0
17 H5	-2.313849  3.408689  -5.018276 H	1 RES1 0.0
18 H6	1.049152  4.0883  -2.250177 H	1 RES1 0.0
19 H7	-0.263813  5.387694  -0.156473 H	1 RES1 0.0
20 H8	-1.425702  5.399701  -1.461208 H	1 RES1 0.0
21 H9	-2.154624  3.261643  -0.807033 H	1 RES1 0.0
22 H10	-2.349939  4.47786  0.480007 H	1 RES1 0.0
23 H11	-1.656079  2.411442  1.328004 H	1 RES1 0.0
24 H12	-0.400545  3.61437  1.498406 H	1 RES1 0.0
25 H13	1.600365  2.418956  -1.399725 H	1 RES1 0.0
26 H14	1.553029  3.610469  -0.126903 H	1 RES1 0.0
27 C9	2.841029  -4.934655  1.179176 C.3	1 RES1 0.0
28 C10	2.642019  -4.216584  2.504003 C.3	1 RES1 0.0
29 O3	2.709188  -2.813415  2.296627 O.3	1 RES1 0.0
30 C11	3.889266  -2.230085  1.764139 C.2	1 RES1 0.0
31 O4	4.885319  -2.963841  1.473165 O.2	1 RES1 0.0
32 C12	3.961164  -0.728101  1.542159 C.3	1 RES1 0.0
33 C13	4.776716  -1.12961  0.3109 C.3	1 RES1 0.0
34 C14	3.889941  -1.487694  -0.751173 C.3	1 RES1 0.0
35 C15	3.02637  -0.429838  -1.171332 C.3	1 RES1 0.0
36 N2	2.14  0.0  0.0 N.3	1 RES1 0.0
37 C16	3.028769  0.429838  1.171332 C.3	1 RES1 0.0
38 H15	2.07436  -4.63825  0.494148 H	1 RES1 0.0
39 H16	2.790415  -5.991973  1.335438 H	1 RES1 0.0
40 H17	3.798404  -4.679229  0.775331 H	1 RES1 0.0
41 H18	1.684645  -4.472013  2.907848 H	1 RES1 0.0
42 H19	3.408689  -4.51299  3.18903 H	1 RES1 0.0
43 H20	4.0883  -0.216496  2.473286 H	1 RES1 0.0
44 H21	5.387694  -0.306705  0.003603 H	1 RES1 0.0
45 H22	5.399701  -1.965299  0.552592 H	1 RES1 0.0
46 H23	3.261643  -2.269475  -0.378401 H	1 RES1 0.0
47 H24	4.47786  -1.795103  -1.590668 H	1 RES1 0.0
48 H25	2.411442  -0.770204  -1.978125 H	1 RES1 0.0
49 H26	3.61437  0.402321  -1.49793 H	1 RES1 0.0
50 H27	2.418956  0.686094  2.01238 H	1 RES1 0.0
51 H28	3.610469  1.281511  0.886416 H	1 RES1 0.0
52 C17	-4.750401  -2.841029  -1.781843 C.3	1 RES1 0.0
53 C18	-4.895927  -2.642019  -0.281971 C.3	1 RES1 0.0
54 O5	-3.616684  -2.709188  0.330749 O.2	1 RES1 0.0
55 C19	-2.835318  -3.889266  0.21549 C.2	1 RES1 0.0
56 O6	-3.280918  -4.885319  -0.43605 O.2	1 RES1 0.0
57 C20	-1.465988  -3.961164  0.871359 C.3	1 RES1 0.0
58 C21	-1.110343  -4.776716  -0.373922 C.3	1 RES1 0.0
59 C22	-0.813303  -3.889941  -1.454659 C.3	1 RES1 0.0
60 C23	0.298648  -3.02637  -1.21144 C.3	1 RES1 0.0
61 N3	0.0  -2.14  0.0 N.3	1 RES1 0.0
62 C24	-0.298648  -3.028769  1.21144 C.3	1 RES1 0.0
63 H29	-4.121608  -2.07436  -2.18401 H	1 RES1 0.0
64 H30	-5.714338  -2.790415  -2.243541 H	1 RES1 0.0
65 H31	-4.312816  -3.798404  -1.973813 H	1 RES1 0.0
66 H32	-5.333514  -1.684645  -0.090003 H	1 RES1 0.0
67 H33	-5.524721  -3.408689  0.120194 H	1 RES1 0.0
68 H34	-1.562528  -4.0883  1.929384 H	1 RES1 0.0
69 H35	-0.256285  -5.387694  -0.16852 H	1 RES1 0.0
70 H36	-1.938312  -5.399701  -0.640861 H	1 RES1 0.0
71 H37	-1.669881  -3.261643  -1.582783 H	1 RES1 0.0
72 H38	-0.598718  -4.47786  -2.322532 H	1 RES1 0.0
73 H39	0.467625  -2.411442  -2.070632 H	1 RES1 0.0
74 H40	1.171171  -3.61437  -1.016865 H	1 RES1 0.0
75 H41	-0.556511  -2.418956  2.051997 H	1 RES1 0.0
76 H42	0.566744  -3.610469  1.451484 H	1 RES1 0.0
77 C25	-2.841029  2.579672  4.368818 C.3	1 RES1 0.0
78 C26	-2.642019  1.127856  4.772583 C.3	1 RES1 0.0
79 O7	-2.709188  0.302307  3.619172 O.3	1 RES1 0.0
80 C27	-3.889266  0.280131  2.829663 C.2	1 RES1 0.0
81 O8	-4.885319  0.999151  3.155355 O.2	1 RES1 0.0
82 C28	-3.961164  -0.603555  1.595026 C.3	1 RES1 0.0
83 C29	-4.776716  0.56105  1.028543 C.3	1 RES1 0.0
84 C30	-3.889941  1.573788  0.548348 C.3	1 RES1 0.0
85 C31	-3.02637  1.141176  -0.504476 C.3	1 RES1 0.0
86 N4	-2.14  0.0  0.0 N.3	1 RES1 0.0
87 C32	-3.028769  -1.141176  0.504476 C.3	1 RES1 0.0
88 H43	-2.07436  2.866539  3.679742 H	1 RES1 0.0
89 H44	-2.790415  3.201741  5.237938 H	1 RES1 0.0
90 H45	-3.798404  2.692739  3.904545 H	1 RES1 0.0
91 H46	-1.684645  1.01479  5.236858 H	1 RES1 0.0
92 H47	-3.408689  0.84099  5.46166 H	1 RES1 0.0
93 H48	-4.0883  -1.628742  1.873823 H	1 RES1 0.0
94 H49	-5.387694  0.210463  0.223128 H	1 RES1 0.0
95 H50	-5.399701  0.96771  1.79758 H	1 RES1 0.0
96 H51	-3.261643  1.848709  1.369664 H	1 RES1 0.0
97 H52	-4.47786  2.391214  0.186319 H	1 RES1 0.0
98 H53	-2.411442  1.957972  -0.820082 H	1 RES1 0.0
99 H54	-3.61437  0.798045  -1.329955 H	1 RES1 0.0
100 H55	-2.418956  -1.924186  0.904382 H	1 RES1 0.0
101 H56	-3.610469  -1.527847  -0.306086 H	1 RES1 0.0
102 C33	3.854491  3.299118  2.841029 C.3	1 RES1 0.0
103 C34	4.504227  1.939472  2.642019 C.3	1 RES1 0.0
104 O9	3.511694  0.926177  2.709188 O.2	1 RES1 0.0
105 C35	2.73803  0.767241  3.889266 C.2	1 RES1 0.0
106 O10	2.933917  1.531893  4.885319 O.2	1 RES1 0.0
107 C36	1.6756  -0.317413  3.961164 C.3	1 RES1 0.0
108 C37	0.915492  0.731131  4.776716 C.3	1 RES1 0.0
109 C38	0.266732  1.645098  3.889941 C.3	1 RES1 0.0
110 C39	-0.694975  1.036238  3.02637 C.3	1 RES1 0.0
111 N5	0.0  0.0  2.14 N.3	1 RES1 0.0
112 C40	0.694975  -1.036238  3.028769 C.3	1 RES1 0.0
113 H57	3.126069  3.46197  2.07436 H	1 RES1 0.0
114 H58	4.602385  4.062657  2.790415 H	1 RES1 0.0
115 H59	3.377637  3.329848  3.798404 H	1 RES1 0.0
116 H60	4.981081  1.908744  1.684645 H	1 RES1 0.0
117 H61	5.232648  1.776621  3.408689 H	1 RES1 0.0
118 H62	2.128184  -1.278612  4.0883 H	1 RES1 0.0
119 H63	0.183192  0.246012  5.387694 H	1 RES1 0.0
120 H64	1.60223  1.265154  5.399701 H	1 RES1 0.0
121 H65	1.027831  2.058463  3.261643 H	1 RES1 0.0
122 H66	-0.231742  2.38724  4.47786 H	1 RES1 0.0
123 H67	-1.147622  1.785821  2.411442 H	1 RES1 0.0
124 H68	-1.448329  0.554976  3.61437 H	1 RES1 0.0
125 H69	1.224773  -1.737909  2.418956 H	1 RES1 0.0
126 H70	-0.036128  -1.557787  3.610469 H	1 RES1 0.0
127 C41	1.503405  -4.845725  -2.841029 C.3	1 RES1 0.0
128 C42	2.777767  -4.041488  -2.642019 C.3	1 RES1 0.0
129 O11	2.477915  -2.655134  -2.709188 O.3	1 RES1 0.0
130 C43	1.907963  -2.108351  -3.889266 C.2	1 RES1 0.0
131 O12	1.666223  -2.859767  -4.885319 O.2	1 RES1 0.0
132 C44	1.586995  -0.624366  -3.961164 C.3	1 RES1 0.0
133 C45	0.385031  -1.10654  -4.776716 C.3	1 RES1 0.0
134 C46	-0.650995  -1.534177  -3.889941 C.3	1 RES1 0.0
135 C47	-1.140292  -0.506471  -3.02637 C.3	1 RES1 0.0
136 N6	0.0  0.0  -2.14 N.3	1 RES1 0.0
137 C48	1.140292  0.506471  -3.028769 C.3	1 RES1 0.0
138 H71	0.800251  -4.59534  -2.07436 H	1 RES1 0.0
139 H72	1.729349  -5.890372  -2.790415 H	1 RES1 0.0
140 H73	1.08353  -4.617606  -3.798404 H	1 RES1 0.0
141 H74	3.197641  -4.26961  -1.684645 H	1 RES1 0.0
142 H75	3.48092  -4.291874  -3.408689 H	1 RES1 0.0
143 H76	2.482195  -0.052217  -4.0883 H	1 RES1 0.0
144 H77	0.023908  -0.305793  -5.387694 H	1 RES1 0.0
145 H78	0.681539  -1.924386  -5.399701 H	1 RES1 0.0
146 H79	-0.227265  -2.289554  -3.261643 H	1 RES1 0.0
147 H80	-1.468287  -1.896511  -4.47786 H	1 RES1 0.0
148 H81	-1.922772  -0.899523  -2.411442 H	1 RES1 0.0
149 H82	-1.521286  0.302231  -3.61437 H	1 RES1 0.0
150 H83	1.962522  0.817866  -2.418956 H	1 RES1 0.0
151 H84	0.799596  1.337404  -3.610469 H	1 RES1 0.0
@<TRIPOS>BOND
1 1 11 1
1 1 36 1
1 1 61 1
1 1 86 1
1 1 111 1
1 1 136 1
1 2 3 1
1 2 13 1
1 2 14 1
1 2 15 1
1 3 4 1
1 3 16 1
1 3 17 1
1 4 5 1
1 5 6 2
1 5 7 1
1 7 8 1
1 7 12 1
1 7 18 1
1 8 9 1
1 8 19 1
1 8 20 1
1 9 10 1
1 9 21 1
1 9 22 1
1 10 11 1
1 10 23 1
1 10 24 1
1 11 12 1
1 12 25 1
1 12 26 1
1 27 28 1
1 27 38 1
1 27 39 1
1 27 40 1
1 28 29 1
1 28 41 1
1 28 42 1
1 29 30 1
1 30 31 2
1 30 32 1
1 32 33 1
1 32 37 1
1 32 43 1
1 33 34 1
1 33 44 1
1 33 45 1
1 34 35 1
1 34 46 1
1 34 47 1
1 35 36 1
1 35 48 1
1 35 49 1
1 36 37 1
1 37 50 1
1 37 51 1
1 37 104 1
1 52 53 1
1 52 63 1
1 52 64 1
1 52 65 1
1 53 54 1
1 53 66 1
1 53 67 1
1 54 55 1
1 54 87 1
1 55 56 2
1 55 57 1
1 57 58 1
1 57 62 1
1 57 68 1
1 58 59 1
1 58 69 1
1 58 70 1
1 59 60 1
1 59 71 1
1 59 72 1
1 60 61 1
1 60 73 1
1 60 74 1
1 61 62 1
1 62 75 1
1 62 76 1
1 77 78 1
1 77 88 1
1 77 89 1
1 77 90 1
1 78 79 1
1 78 91 1
1 78 92 1
1 79 80 1
1 80 81 2
1 80 82 1
1 82 83 1
1 82 87 1
1 82 93 1
1 83 84 1
1 83 94 1
1 83 95 1
1 84 85 1
1 84 96 1
1 84 97 1
1 85 86 1
1 85 98 1
1 85 99 1
1 86 87 1
1 87 100 1
1 87 101 1
1 102 103 1
1 102 113 1
1 102 114 1
1 102 115 1
1 103 104 1
1 103 116 1
1 103 117 1
1 104 105 1
1 105 106 2
1 105 107 1
1 107 108 1
1 107 112 1
1 107 118 1
1 108 109 1
1 108 119 1
1 108 120 1
1 109 110 1
1 109 121 1
1 109 122 1
1 110 111 1
1 110 123 1
1 110 124 1
1 111 112 1
1 112 125 1
1 112 126 1
1 127 128 1
1 127 138 1
1 127 139 1
1 127 140 1
1 128 129 1
1 128 141 1
1 128 142 1
1 129 130 1
1 130 131 2
1 130 132 1
1 132 133 1
1 132 137 1
1 132 143 1
1 133 134 1
1 133 144 1
1 133 145 1
1 134 135 1
1 134 146 1
1 134 147 1
1 135 136 1
1 135 148 1
1 135 149 1
1 136 137 1
1 137 150 1
1 137 151 1
@<TRIPOS>SUBSTRUCTURE
1 RES1 151

