@<TRIPOS>MOLECULE
/Users/abdulahmed/Documents/GitHub/HER-metal-complex-ligands/Runs//catechol/catechol
37	42	1
SMALL
PartialCharges
****
Generated from molSimplify

@<TRIPOS>ATOM
1 Ni1	0.0  0.0  0.0 Ni	1 RES1 0.0
2 O1	0.0  2.0  -0.0 O.3	1 RES1 0.0
3 C1	1.227937  2.337213  0.045704 C.ar	1 RES1 0.0
4 C2	1.644817  3.68839  0.097332 C.ar	1 RES1 0.0
5 C3	2.985904  4.072406  0.147707 C.ar	1 RES1 0.0
6 C4	3.963298  3.095017  0.147707 C.ar	1 RES1 0.0
7 C5	3.579293  1.753924  0.097333 C.ar	1 RES1 0.0
8 C6	2.228121  1.33703  0.045704 C.ar	1 RES1 0.0
9 O2	1.89091  0.10909  0.0 O.3	1 RES1 0.0
10 H1	0.871791  4.451685  0.097048 H	1 RES1 0.0
11 H2	3.244184  5.121047  0.18587 H	1 RES1 0.0
12 H3	5.011937  3.353307  0.18587 H	1 RES1 0.0
13 H4	4.342597  0.980907  0.097049 H	1 RES1 0.0
14 O3	-0.0  -2.0  0.0 O.3	1 RES1 0.0
15 C7	0.045704  -2.337213  1.227937 C.ar	1 RES1 0.0
16 C8	0.097332  -3.68839  1.644817 C.ar	1 RES1 0.0
17 C9	0.147707  -4.072406  2.985904 C.ar	1 RES1 0.0
18 C10	0.147707  -3.095017  3.963298 C.ar	1 RES1 0.0
19 C11	0.097333  -1.753924  3.579293 C.ar	1 RES1 0.0
20 C12	0.045704  -1.33703  2.228121 C.ar	1 RES1 0.0
21 O4	-0.0  -0.10909  1.89091 O.3	1 RES1 0.0
22 H5	0.097048  -4.451685  0.871791 H	1 RES1 0.0
23 H6	0.18587  -5.121047  3.244184 H	1 RES1 0.0
24 H7	0.18587  -3.353307  5.011937 H	1 RES1 0.0
25 H8	0.097049  -0.980907  4.342597 H	1 RES1 0.0
26 O5	-2.0  0.0  -0.0 O.3	1 RES1 0.0
27 C13	-2.337213  0.045704  -1.227937 C.ar	1 RES1 0.0
28 C14	-3.68839  0.097332  -1.644817 C.ar	1 RES1 0.0
29 C15	-4.072406  0.147707  -2.985904 C.ar	1 RES1 0.0
30 C16	-3.095017  0.147707  -3.963298 C.ar	1 RES1 0.0
31 C17	-1.753924  0.097333  -3.579293 C.ar	1 RES1 0.0
32 C18	-1.33703  0.045704  -2.228121 C.ar	1 RES1 0.0
33 O6	-0.10909  -0.0  -1.89091 O.3	1 RES1 0.0
34 H9	-4.451685  0.097048  -0.871791 H	1 RES1 0.0
35 H10	-5.121047  0.18587  -3.244184 H	1 RES1 0.0
36 H11	-3.353307  0.18587  -5.011937 H	1 RES1 0.0
37 H12	-0.980907  0.097049  -4.342597 H	1 RES1 0.0
@<TRIPOS>BOND
1 1 2 1
1 1 9 1
1 1 14 1
1 1 21 1
1 1 26 1
1 1 33 1
1 2 3 1
1 3 4 2
1 3 8 1
1 4 5 1
1 4 10 1
1 5 6 2
1 5 11 1
1 6 7 1
1 6 12 1
1 7 8 2
1 7 13 1
1 8 9 1
1 14 15 1
1 15 16 2
1 15 20 1
1 16 17 1
1 16 22 1
1 17 18 2
1 17 23 1
1 18 19 1
1 18 24 1
1 19 20 2
1 19 25 1
1 20 21 1
1 26 27 1
1 27 28 2
1 27 32 1
1 28 29 1
1 28 34 1
1 29 30 2
1 29 35 1
1 30 31 1
1 30 36 1
1 31 32 2
1 31 37 1
1 32 33 1
@<TRIPOS>SUBSTRUCTURE
1 RES1 37

