@<TRIPOS>MOLECULE
/home/jovyan/shared-scratch-kabdelma-pvc/kabdelma/HER-metal-complex-ligands/Runs//ni_oct_2_5-Chloropyridine-2-thiol_3_s_1/ni_oct_2_5-Chloropyridine-2-thiol_3_s_1_conf_1
34	39	1
SMALL
PartialCharges
****
Generated from molSimplify

@<TRIPOS>ATOM
1 Ni1	0.0  0.0  0.0 Ni	1 RES1 0.0
2 C1	3.999571  2.276063  0.027991 C.2	1 RES1 0.0
3 C2	2.73909  2.736009  0.02239 C.2	1 RES1 0.0
4 C3	1.586609  1.771385  0.007578 C.3	1 RES1 0.0
5 S1	-0.0  2.274867  0.0 S.3	1 RES1 0.0
6 N1	1.812877  0.46199  0.0 N.pl3	1 RES1 0.0
7 C4	3.119857  0.076053  0.006443 C.2	1 RES1 0.0
8 C5	4.216083  0.85484  0.019561 C.2	1 RES1 0.0
9 Cl1	5.815581  0.234545  0.026411 Cl	1 RES1 0.0
10 H1	4.845797  2.947653  0.03861 H	1 RES1 0.0
11 H2	2.517535  3.794625  0.028247 H	1 RES1 0.0
12 H3	3.317321  -0.996039  0.000323 H	1 RES1 0.0
13 C6	0.027991  -2.276063  3.999571 C.2	1 RES1 0.0
14 C7	0.02239  -2.736009  2.73909 C.2	1 RES1 0.0
15 C8	0.007578  -1.771385  1.586609 C.3	1 RES1 0.0
16 S2	-0.0  -2.274867  0.0 S.3	1 RES1 0.0
17 N2	-0.0  -0.46199  1.812877 N.pl3	1 RES1 0.0
18 C9	0.006443  -0.076053  3.119857 C.2	1 RES1 0.0
19 C10	0.019561  -0.85484  4.216083 C.2	1 RES1 0.0
20 Cl2	0.026411  -0.234545  5.815581 Cl	1 RES1 0.0
21 H4	0.03861  -2.947653  4.845797 H	1 RES1 0.0
22 H5	0.028247  -3.794625  2.517535 H	1 RES1 0.0
23 H6	0.000323  0.996039  3.317321 H	1 RES1 0.0
24 C11	-2.276063  0.027991  -3.999571 C.2	1 RES1 0.0
25 C12	-2.736009  0.02239  -2.73909 C.2	1 RES1 0.0
26 C13	-1.771385  0.007578  -1.586609 C.3	1 RES1 0.0
27 S3	-2.274867  0.0  0.0 S.3	1 RES1 0.0
28 N3	-0.46199  0.0  -1.812877 N.pl3	1 RES1 0.0
29 C14	-0.076053  0.006443  -3.119857 C.2	1 RES1 0.0
30 C15	-0.85484  0.019561  -4.216083 C.2	1 RES1 0.0
31 Cl3	-0.234545  0.026411  -5.815581 Cl	1 RES1 0.0
32 H7	-2.947653  0.03861  -4.845797 H	1 RES1 0.0
33 H8	-3.794625  0.028247  -2.517535 H	1 RES1 0.0
34 H9	0.996039  0.000323  -3.317321 H	1 RES1 0.0
@<TRIPOS>BOND
1 1 5 1
1 1 6 1
1 1 16 1
1 1 17 1
1 1 27 1
1 1 28 1
1 2 3 2
1 2 8 1
1 2 10 1
1 3 4 1
1 3 11 1
1 4 5 1
1 4 6 1
1 6 7 1
1 7 8 2
1 7 12 1
1 8 9 1
1 13 14 2
1 13 19 1
1 13 21 1
1 14 15 1
1 14 22 1
1 15 16 1
1 15 17 1
1 17 18 1
1 18 19 2
1 18 23 1
1 19 20 1
1 24 25 2
1 24 30 1
1 24 32 1
1 25 26 1
1 25 33 1
1 26 27 1
1 26 28 1
1 28 29 1
1 29 30 2
1 29 34 1
1 30 31 1
@<TRIPOS>SUBSTRUCTURE
1 RES1 34

