@<TRIPOS>MOLECULE
/home/jovyan/shared-scratch-kabdelma-pvc/kabdelma/HER-metal-complex-ligands/Runs//ni_oct_2_benzenedithiol_3_s_1/ni_oct_2_benzenedithiol_3_s_1_conf_1
37	42	1
SMALL
PartialCharges
****
Generated from molSimplify

@<TRIPOS>ATOM
1 Ni1	0.0  0.0  0.0 Ni	1 RES1 0.0
2 S1	-0.0  2.415479  -0.0 S.3	1 RES1 0.0
3 C1	1.744239  2.84071  -4.3e-05 C.ar	1 RES1 0.0
4 C2	2.740869  1.844093  9.4e-05 C.ar	1 RES1 0.0
5 C3	2.11425  4.191895  -9.6e-05 C.ar	1 RES1 0.0
6 C4	4.092121  2.214142  0.000122 C.ar	1 RES1 0.0
7 C5	4.452376  3.564411  0.00019 C.ar	1 RES1 0.0
8 C6	3.464644  4.5522  0.000109 C.ar	1 RES1 0.0
9 H1	1.355008  4.963747  -0.000105 H	1 RES1 0.0
10 H2	3.745494  5.597466  0.000196 H	1 RES1 0.0
11 H3	4.8638  1.454733  0.000242 H	1 RES1 0.0
12 H4	5.497638  3.84519  0.000305 H	1 RES1 0.0
13 S2	2.315886  0.099593  -0.0 S.3	1 RES1 0.0
14 S3	0.0  -2.415479  0.0 S.3	1 RES1 0.0
15 C7	-4.3e-05  -2.84071  1.744239 C.ar	1 RES1 0.0
16 C8	9.4e-05  -1.844093  2.740869 C.ar	1 RES1 0.0
17 C9	-9.6e-05  -4.191895  2.11425 C.ar	1 RES1 0.0
18 C10	0.000122  -2.214142  4.092121 C.ar	1 RES1 0.0
19 C11	0.00019  -3.564411  4.452376 C.ar	1 RES1 0.0
20 C12	0.000109  -4.5522  3.464644 C.ar	1 RES1 0.0
21 H5	-0.000105  -4.963747  1.355008 H	1 RES1 0.0
22 H6	0.000196  -5.597466  3.745494 H	1 RES1 0.0
23 H7	0.000242  -1.454733  4.8638 H	1 RES1 0.0
24 H8	0.000305  -3.84519  5.497638 H	1 RES1 0.0
25 S4	-0.0  -0.099593  2.315886 S.3	1 RES1 0.0
26 S5	-2.415479  0.0  0.0 S.3	1 RES1 0.0
27 C13	-2.84071  -4.3e-05  -1.744239 C.ar	1 RES1 0.0
28 C14	-1.844093  9.4e-05  -2.740869 C.ar	1 RES1 0.0
29 C15	-4.191895  -9.6e-05  -2.11425 C.ar	1 RES1 0.0
30 C16	-2.214142  0.000122  -4.092121 C.ar	1 RES1 0.0
31 C17	-3.564411  0.00019  -4.452376 C.ar	1 RES1 0.0
32 C18	-4.5522  0.000109  -3.464644 C.ar	1 RES1 0.0
33 H9	-4.963747  -0.000105  -1.355008 H	1 RES1 0.0
34 H10	-5.597466  0.000196  -3.745494 H	1 RES1 0.0
35 H11	-1.454733  0.000242  -4.8638 H	1 RES1 0.0
36 H12	-3.84519  0.000305  -5.497638 H	1 RES1 0.0
37 S6	-0.099593  -0.0  -2.315886 S.3	1 RES1 0.0
@<TRIPOS>BOND
1 1 2 1
1 1 13 1
1 1 14 1
1 1 25 1
1 1 26 1
1 1 37 1
1 2 3 1
1 3 4 2
1 3 5 1
1 4 6 1
1 4 13 1
1 5 8 2
1 5 9 1
1 6 7 2
1 6 11 1
1 7 8 1
1 7 12 1
1 8 10 1
1 14 15 1
1 15 16 2
1 15 17 1
1 16 18 1
1 16 25 1
1 17 20 2
1 17 21 1
1 18 19 2
1 18 23 1
1 19 20 1
1 19 24 1
1 20 22 1
1 26 27 1
1 27 28 2
1 27 29 1
1 28 30 1
1 28 37 1
1 29 32 2
1 29 33 1
1 30 31 2
1 30 35 1
1 31 32 1
1 31 36 1
1 32 34 1
@<TRIPOS>SUBSTRUCTURE
1 RES1 37

