@<TRIPOS>MOLECULE
/Users/abdulahmed/Documents/GitHub/HER-metal-complex-ligands/Runs//3_bromo_6_mercaptopyridine/3_bromo_6_mercaptopyridine
34	39	1
SMALL
PartialCharges
****
Generated from molSimplify

@<TRIPOS>ATOM
1 Ni1	0.0  0.0  0.0 Ni	1 RES1 0.0
2 Br1	-0.290541  6.274733  -0.05343 Br	1 RES1 0.0
3 C1	0.407369  4.522599  -0.038778 C.2	1 RES1 0.0
4 C2	-0.434115  3.420377  -0.011762 C.3	1 RES1 0.0
5 N1	-0.0  2.14  0.0 N.pl3	1 RES1 0.0
6 C3	1.319046  1.965962  -0.015914 C.2	1 RES1 0.0
7 S1	1.787754  0.352246  0.0 S.3	1 RES1 0.0
8 C4	2.248404  2.994482  -0.043127 C.2	1 RES1 0.0
9 C5	1.778808  4.306045  -0.054829 C.2	1 RES1 0.0
10 H1	-1.512945  3.525199  0.001775 H	1 RES1 0.0
11 H2	3.311699  2.782902  -0.054965 H	1 RES1 0.0
12 H3	2.48325  5.12883  -0.076056 H	1 RES1 0.0
13 Br2	-0.05343  -6.274733  -0.290541 Br	1 RES1 0.0
14 C6	-0.038778  -4.522599  0.407369 C.2	1 RES1 0.0
15 C7	-0.011762  -3.420377  -0.434115 C.3	1 RES1 0.0
16 N2	0.0  -2.14  0.0 N.pl3	1 RES1 0.0
17 C8	-0.015914  -1.965962  1.319046 C.2	1 RES1 0.0
18 S2	-0.0  -0.352246  1.787754 S.3	1 RES1 0.0
19 C9	-0.043127  -2.994482  2.248404 C.2	1 RES1 0.0
20 C10	-0.054829  -4.306045  1.778808 C.2	1 RES1 0.0
21 H4	0.001775  -3.525199  -1.512945 H	1 RES1 0.0
22 H5	-0.054965  -2.782902  3.311699 H	1 RES1 0.0
23 H6	-0.076056  -5.12883  2.48325 H	1 RES1 0.0
24 Br3	-6.274733  -0.05343  0.290541 Br	1 RES1 0.0
25 C11	-4.522599  -0.038778  -0.407369 C.2	1 RES1 0.0
26 C12	-3.420377  -0.011762  0.434115 C.3	1 RES1 0.0
27 N3	-2.14  0.0  0.0 N.pl3	1 RES1 0.0
28 C13	-1.965962  -0.015914  -1.319046 C.2	1 RES1 0.0
29 S3	-0.352246  0.0  -1.787754 S.3	1 RES1 0.0
30 C14	-2.994482  -0.043127  -2.248404 C.2	1 RES1 0.0
31 C15	-4.306045  -0.054829  -1.778808 C.2	1 RES1 0.0
32 H7	-3.525199  0.001775  1.512945 H	1 RES1 0.0
33 H8	-2.782902  -0.054965  -3.311699 H	1 RES1 0.0
34 H9	-5.12883  -0.076056  -2.48325 H	1 RES1 0.0
@<TRIPOS>BOND
1 1 5 1
1 1 7 1
1 1 16 1
1 1 18 1
1 1 27 1
1 1 29 1
1 2 3 1
1 3 4 1
1 3 9 2
1 4 5 1
1 4 10 1
1 5 6 1
1 6 7 1
1 6 8 2
1 8 9 1
1 8 11 1
1 9 12 1
1 13 14 1
1 14 15 1
1 14 20 2
1 15 16 1
1 15 21 1
1 16 17 1
1 17 18 1
1 17 19 2
1 19 20 1
1 19 22 1
1 20 23 1
1 24 25 1
1 25 26 1
1 25 31 2
1 26 27 1
1 26 32 1
1 27 28 1
1 28 29 1
1 28 30 2
1 30 31 1
1 30 33 1
1 31 34 1
@<TRIPOS>SUBSTRUCTURE
1 RES1 34

