@<TRIPOS>MOLECULE
/home/jovyan/shared-scratch-kabdelma-pvc/kabdelma/HER-metal-complex-ligands/Runs//ni_thd_2_1_2-bis(dicyclohexylphosphino)ethane_2_s_1/badjob_ni_thd_2_1_2-bis(dicyclohexylphosphino)ethane_2_s_1_conf_1
153	241	1
SMALL
PartialCharges
****
Generated from molSimplify

@<TRIPOS>ATOM
1 Ni1	0.0  0.0  0.0 Ni	1 RES1 0.0
2 C1	-0.839308  4.481541  5.077874 C.3	1 RES1 0.0
3 C2	-0.52528  3.086116  4.550932 C.3	1 RES1 0.0
4 C3	-1.174464  2.839047  3.186786 C.3	1 RES1 0.0
5 C4	-0.765597  3.913724  2.165744 C.3	1 RES1 0.0
6 C5	-1.100741  5.313593  2.704275 C.3	1 RES1 0.0
7 C6	-0.453625  5.558324  4.069097 C.3	1 RES1 0.0
8 P1	-1.291234  3.691361  0.411836 P.3	1 RES1 0.0
9 C7	-0.713377  2.017596  0.0 C.3	1 RES1 0.0
10 C8	-1.519444  1.126127  -0.916298 C.3	1 RES1 0.0
11 P2	-0.713377  -0.430902  -1.413654 P.3	1 RES1 0.0
12 C9	1.059465  -0.129249  -1.72123 C.3	1 RES1 0.0
13 C10	1.984  -0.272897  -0.508453 C.3	1 RES1 0.0
14 C11	3.440938  0.01517  -0.87561 C.3	1 RES1 0.0
15 C12	3.919689  -0.863831  -2.026804 C.3	1 RES1 0.0
16 C13	3.000626  -0.750294  -3.236886 C.3	1 RES1 0.0
17 C14	1.547433  -1.041054  -2.86626 C.3	1 RES1 0.0
18 C15	-0.933277  -1.760864  -0.204804 C.3	1 RES1 0.0
19 C16	-2.257787  -2.501325  -0.487816 C.3	1 RES1 0.0
20 C17	-2.411096  -3.73528  0.398581 C.3	1 RES1 0.0
21 C18	-2.28615  -3.382747  1.875885 C.3	1 RES1 0.0
22 C19	-1.003032  -2.609085  2.166875 C.3	1 RES1 0.0
23 C20	-0.863148  -1.374058  1.271961 C.3	1 RES1 0.0
24 C21	-3.102154  3.774016  0.225134 C.3	1 RES1 0.0
25 C22	-3.542606  5.235347  -0.01338 C.3	1 RES1 0.0
26 C23	-5.033958  5.336211  -0.330843 C.3	1 RES1 0.0
27 C24	-5.884937  4.66426  0.740329 C.3	1 RES1 0.0
28 C25	-5.447862  3.221081  0.977637 C.3	1 RES1 0.0
29 C26	-3.957915  3.138934  1.316855 C.3	1 RES1 0.0
30 H1	-1.909558  4.555654  5.301203 H	1 RES1 0.0
31 H2	-0.303374  4.64819  6.019811 H	1 RES1 0.0
32 H3	0.559963  2.958045  4.468224 H	1 RES1 0.0
33 H4	-0.880686  2.334996  5.266868 H	1 RES1 0.0
34 H5	-2.254823  2.814075  3.332262 H	1 RES1 0.0
35 H6	-0.886956  1.834775  2.862802 H	1 RES1 0.0
36 H7	0.33058  3.863967  2.098219 H	1 RES1 0.0
37 H8	-0.756549  6.090397  2.009242 H	1 RES1 0.0
38 H9	-2.184921  5.434074  2.805096 H	1 RES1 0.0
39 H10	-0.755511  6.541597  4.4486 H	1 RES1 0.0
40 H11	0.636636  5.580384  3.957591 H	1 RES1 0.0
41 H12	0.276721  2.191097  -0.436379 H	1 RES1 0.0
42 H13	-0.513857  1.457204  0.913382 H	1 RES1 0.0
43 H14	-2.490908  0.893455  -0.46588 H	1 RES1 0.0
44 H15	-1.739076  1.677684  -1.838661 H	1 RES1 0.0
45 H16	1.143902  0.899798  -2.09439 H	1 RES1 0.0
46 H17	1.926706  -1.289367  -0.099449 H	1 RES1 0.0
47 H18	1.686766  0.40763  0.296203 H	1 RES1 0.0
48 H19	3.544501  1.071162  -1.153929 H	1 RES1 0.0
49 H20	4.079569  -0.148446  -0.000265 H	1 RES1 0.0
50 H21	3.958741  -1.909154  -1.69669 H	1 RES1 0.0
51 H22	4.939366  -0.579737  -2.310124 H	1 RES1 0.0
52 H23	3.074062  0.259602  -3.659393 H	1 RES1 0.0
53 H24	3.328272  -1.446168  -4.017484 H	1 RES1 0.0
54 H25	1.453339  -2.097782  -2.581711 H	1 RES1 0.0
55 H26	0.926539  -0.901126  -3.761067 H	1 RES1 0.0
56 H27	-0.13087  -2.485127  -0.400084 H	1 RES1 0.0
57 H28	-3.112686  -1.831022  -0.324265 H	1 RES1 0.0
58 H29	-2.307626  -2.821504  -1.537147 H	1 RES1 0.0
59 H30	-1.644096  -4.472734  0.130691 H	1 RES1 0.0
60 H31	-3.382848  -4.205967  0.210416 H	1 RES1 0.0
61 H32	-2.309388  -4.300162  2.474915 H	1 RES1 0.0
62 H33	-3.150901  -2.780388  2.179263 H	1 RES1 0.0
63 H34	-0.988394  -2.305915  3.219492 H	1 RES1 0.0
64 H35	-0.139327  -3.268471  2.013069 H	1 RES1 0.0
65 H36	0.084883  -0.880679  1.507861 H	1 RES1 0.0
66 H37	-1.660214  -0.66224  1.521349 H	1 RES1 0.0
67 H38	-3.325207  3.244581  -0.710198 H	1 RES1 0.0
68 H39	-3.328201  5.853578  0.866231 H	1 RES1 0.0
69 H40	-2.980292  5.676774  -0.847075 H	1 RES1 0.0
70 H41	-5.231454  4.868105  -1.302595 H	1 RES1 0.0
71 H42	-5.31909  6.390834  -0.421688 H	1 RES1 0.0
72 H43	-6.939408  4.688828  0.44314 H	1 RES1 0.0
73 H44	-5.803617  5.229542  1.676798 H	1 RES1 0.0
74 H45	-6.035288  2.792179  1.797515 H	1 RES1 0.0
75 H46	-5.656301  2.620995  0.084076 H	1 RES1 0.0
76 H47	-3.812057  3.664456  2.26598 H	1 RES1 0.0
77 H48	-3.680589  2.089734  1.471045 H	1 RES1 0.0
78 C27	4.505056  0.702604  -5.077848 C.3	1 RES1 0.0
79 C28	3.084754  0.533547  -4.550919 C.3	1 RES1 0.0
80 C29	3.068189  -0.160881  -3.186781 C.3	1 RES1 0.0
81 C30	3.945118  0.582804  -2.165724 C.3	1 RES1 0.0
82 C31	5.376649  0.733434  -2.704243 C.3	1 RES1 0.0
83 C32	5.391699  1.425132  -4.069058 C.3	1 RES1 0.0
84 P3	3.910664  0.01309  -0.411823 P.3	1 RES1 0.0
85 C33	2.14  -0.0  0.0 C.3	1 RES1 0.0
86 C34	1.568181  -1.057125  0.916283 C.3	1 RES1 0.0
87 P4	-0.168489  -0.816145  1.413628 P.3	1 RES1 0.0
88 C35	-0.475011  0.955859  1.72122 C.3	1 RES1 0.0
89 C36	-0.9186  1.779655  0.508449 C.3	1 RES1 0.0
90 C37	-1.132634  3.249291  0.875619 C.3	1 RES1 0.0
91 C38	-2.120954  3.407665  2.026808 C.3	1 RES1 0.0
92 C39	-1.707577  2.578991  3.236885 C.3	1 RES1 0.0
93 C40	-1.497331  1.111988  2.866244 C.3	1 RES1 0.0
94 C41	-1.34909  -1.466759  0.204763 C.3	1 RES1 0.0
95 C42	-1.605725  -2.962339  0.487757 C.3	1 RES1 0.0
96 C43	-2.718009  -3.518171  -0.398655 C.3	1 RES1 0.0
97 C44	-2.427271  -3.282849  -1.875954 C.3	1 RES1 0.0
98 C45	-2.125536  -1.815228  -2.166926 C.3	1 RES1 0.0
99 C46	-1.007768  -1.271695  -1.271998 C.3	1 RES1 0.0
100 C47	4.592204  -1.666723  -0.225134 C.3	1 RES1 0.0
101 C48	6.116777  -1.594901  0.013393 C.3	1 RES1 0.0
102 C49	6.708966  -2.967352  0.330846 C.3	1 RES1 0.0
103 C50	6.359097  -3.993629  -0.740339 C.3	1 RES1 0.0
104 C51	4.852763  -4.062586  -0.97766 C.3	1 RES1 0.0
105 C52	4.278689  -2.685219  -1.316867 C.3	1 RES1 0.0
106 H49	4.931667  -0.281738  -5.301185 H	1 RES1 0.0
107 H50	4.483545  1.263447  -6.01978 H	1 RES1 0.0
108 H51	2.602274  1.51404  -4.468205 H	1 RES1 0.0
109 H52	2.495056  -0.05189  -5.266866 H	1 RES1 0.0
110 H53	3.40475  -1.187781  -3.332266 H	1 RES1 0.0
111 H54	2.025512  -0.224561  -2.862805 H	1 RES1 0.0
112 H55	3.53283  1.599709  -2.098191 H	1 RES1 0.0
113 H56	5.9943  1.316859  -2.009199 H	1 RES1 0.0
114 H57	5.851618  -0.248587  -2.80507 H	1 RES1 0.0
115 H58	6.419369  1.468257  -4.448553 H	1 RES1 0.0
116 H59	5.049092  2.460397  -3.957543 H	1 RES1 0.0
117 H60	1.973558  0.991305  0.436388 H	1 RES1 0.0
118 H61	1.545157  0.001331  -0.913386 H	1 RES1 0.0
119 H62	1.672625  -2.050584  0.465854 H	1 RES1 0.0
120 H63	2.161397  -1.080363  1.83865 H	1 RES1 0.0
121 H64	0.467042  1.378463  2.094392 H	1 RES1 0.0
122 H65	-1.857842  1.386833  0.099434 H	1 RES1 0.0
123 H66	-0.177909  1.72626  -0.296202 H	1 RES1 0.0
124 H67	-0.171551  3.698911  1.153951 H	1 RES1 0.0
125 H68	-1.499754  3.796875  0.000278 H	1 RES1 0.0
126 H69	-3.119513  3.096061  1.696683 H	1 RES1 0.0
127 H70	-2.192985  4.463721  2.310139 H	1 RES1 0.0
128 H71	-0.779914  2.98484  3.659402 H	1 RES1 0.0
129 H72	-2.472874  2.655943  4.017478 H	1 RES1 0.0
130 H73	-2.462263  0.67105  2.581684 H	1 RES1 0.0
131 H74	-1.158455  0.573231  3.761048 H	1 RES1 0.0
132 H75	-2.299395  -0.951651  0.40004 H	1 RES1 0.0
133 H76	-0.688799  -3.544923  0.324206 H	1 RES1 0.0
134 H77	-1.890991  -3.11606  1.537084 H	1 RES1 0.0
135 H78	-3.668948  -3.040844  -0.130767 H	1 RES1 0.0
136 H79	-2.837877  -4.591244  -0.210502 H	1 RES1 0.0
137 H80	-3.284472  -3.610544  -2.474994 H	1 RES1 0.0
138 H81	-1.571118  -3.897368  -2.179333 H	1 RES1 0.0
139 H82	-1.844575  -1.700363  -3.21954 H	1 RES1 0.0
140 H83	-3.035106  -1.220702  -2.013121 H	1 RES1 0.0
141 H84	-0.858599  -0.213423  -1.507885 H	1 RES1 0.0
142 H85	-0.070978  -1.785915  -1.521384 H	1 RES1 0.0
143 H86	4.167386  -2.053501  0.710192 H	1 RES1 0.0
144 H87	6.628195  -1.18668  -0.86621 H	1 RES1 0.0
145 H88	6.345524  -0.917616  0.847097 H	1 RES1 0.0
146 H89	6.33345  -3.309593  1.302591 H	1 RES1 0.0
147 H90	7.798319  -2.884654  0.4217 H	1 RES1 0.0
148 H91	6.733732  -4.979613  -0.443159 H	1 RES1 0.0
149 H92	6.864953  -3.728531  -1.676802 H	1 RES1 0.0
150 H93	4.644195  -4.759371  -1.797546 H	1 RES1 0.0
151 H94	4.356463  -4.459134  -0.084106 H	1 RES1 0.0
152 H95	4.725549  -2.372527  -2.265986 H	1 RES1 0.0
153 H96	3.197052  -2.773469  -1.471067 H	1 RES1 0.0
@<TRIPOS>BOND
1 1 11 1
1 1 12 1
1 1 87 1
1 1 88 1
1 1 94 1
1 2 3 1
1 2 7 1
1 2 30 1
1 2 31 1
1 3 4 1
1 3 32 1
1 3 33 1
1 3 128 1
1 4 5 1
1 4 34 1
1 4 35 1
1 4 91 1
1 4 92 1
1 4 128 1
1 5 6 1
1 5 8 1
1 5 36 1
1 5 90 1
1 5 91 1
1 5 124 1
1 6 7 1
1 6 37 1
1 6 38 1
1 7 39 1
1 7 40 1
1 8 9 1
1 8 24 1
1 8 89 1
1 8 90 1
1 8 91 1
1 8 124 1
1 8 125 1
1 9 10 1
1 9 41 1
1 9 42 1
1 9 89 1
1 9 90 1
1 9 122 1
1 9 123 1
1 10 11 1
1 10 43 1
1 10 44 1
1 10 89 1
1 10 122 1
1 11 12 1
1 11 18 1
1 11 94 1
1 11 99 1
1 11 141 1
1 11 142 1
1 12 13 1
1 12 17 1
1 12 45 1
1 12 118 1
1 13 14 1
1 13 46 1
1 13 47 1
1 13 84 1
1 13 85 1
1 13 86 1
1 13 118 1
1 14 15 1
1 14 48 1
1 14 49 1
1 14 81 1
1 14 84 1
1 14 85 1
1 15 16 1
1 15 50 1
1 15 51 1
1 15 80 1
1 15 81 1
1 15 84 1
1 16 17 1
1 16 52 1
1 16 53 1
1 16 80 1
1 16 110 1
1 16 111 1
1 17 54 1
1 17 55 1
1 17 111 1
1 18 19 1
1 18 23 1
1 18 56 1
1 18 87 1
1 18 94 1
1 18 95 1
1 18 99 1
1 19 20 1
1 19 57 1
1 19 58 1
1 19 94 1
1 19 95 1
1 19 96 1
1 19 97 1
1 20 21 1
1 20 59 1
1 20 60 1
1 20 95 1
1 20 96 1
1 20 136 1
1 21 22 1
1 21 61 1
1 21 62 1
1 21 95 1
1 21 134 1
1 22 23 1
1 22 63 1
1 22 64 1
1 22 134 1
1 23 65 1
1 23 66 1
1 23 87 1
1 23 94 1
1 24 25 1
1 24 29 1
1 24 67 1
1 25 26 1
1 25 68 1
1 25 69 1
1 26 27 1
1 26 70 1
1 26 71 1
1 27 28 1
1 27 72 1
1 27 73 1
1 28 29 1
1 28 74 1
1 28 75 1
1 29 76 1
1 29 77 1
1 29 126 1
1 34 92 1
1 34 129 1
1 35 92 1
1 35 93 1
1 41 123 1
1 42 88 1
1 42 89 1
1 46 85 1
1 46 86 1
1 47 85 1
1 47 117 1
1 48 81 1
1 48 84 1
1 49 84 1
1 50 105 1
1 52 79 1
1 52 80 1
1 53 110 1
1 58 97 1
1 58 98 1
1 60 96 1
1 60 136 1
1 65 87 1
1 66 87 1
1 78 79 1
1 78 83 1
1 78 106 1
1 78 107 1
1 79 80 1
1 79 108 1
1 79 109 1
1 80 81 1
1 80 110 1
1 80 111 1
1 81 82 1
1 81 84 1
1 81 112 1
1 82 83 1
1 82 113 1
1 82 114 1
1 83 115 1
1 83 116 1
1 84 85 1
1 84 100 1
1 85 86 1
1 85 117 1
1 85 118 1
1 86 87 1
1 86 119 1
1 86 120 1
1 87 88 1
1 87 94 1
1 88 89 1
1 88 93 1
1 88 121 1
1 89 90 1
1 89 122 1
1 89 123 1
1 90 91 1
1 90 124 1
1 90 125 1
1 91 92 1
1 91 126 1
1 91 127 1
1 92 93 1
1 92 128 1
1 92 129 1
1 93 130 1
1 93 131 1
1 94 95 1
1 94 99 1
1 94 132 1
1 95 96 1
1 95 133 1
1 95 134 1
1 96 97 1
1 96 135 1
1 96 136 1
1 97 98 1
1 97 137 1
1 97 138 1
1 98 99 1
1 98 139 1
1 98 140 1
1 99 141 1
1 99 142 1
1 100 101 1
1 100 105 1
1 100 143 1
1 101 102 1
1 101 144 1
1 101 145 1
1 102 103 1
1 102 146 1
1 102 147 1
1 103 104 1
1 103 148 1
1 103 149 1
1 104 105 1
1 104 150 1
1 104 151 1
1 105 152 1
1 105 153 1
@<TRIPOS>SUBSTRUCTURE
1 RES1 153

