@<TRIPOS>MOLECULE
/Users/abdulahmed/Documents/GitHub/HER-metal-complex-ligands/Runs//2_mercapto_6_methylpyridine/2_mercapto_6_methylpyridine
43	48	1
SMALL
PartialCharges
****
Generated from molSimplify

@<TRIPOS>ATOM
1 Ni1	0.0  0.0  0.0 Ni	1 RES1 0.0
2 C1	3.351594  -1.515271  0.002715 C.3	1 RES1 0.0
3 C2	3.126468  -0.03519  -0.005937 C.3	1 RES1 0.0
4 C3	4.210943  0.838996  -0.019439 C.2	1 RES1 0.0
5 C4	3.962095  2.207193  -0.027155 C.2	1 RES1 0.0
6 C5	2.64568  2.657987  -0.021188 C.2	1 RES1 0.0
7 C6	1.629328  1.71614  -0.00769 C.2	1 RES1 0.0
8 S1	0.0  2.23  0.0 S.3	1 RES1 0.0
9 N1	1.842475  0.387525  -0.0 N.pl3	1 RES1 0.0
10 H1	3.917855  -1.80661  0.892819 H	1 RES1 0.0
11 H2	2.399792  -2.056236  0.013002 H	1 RES1 0.0
12 H3	3.905564  -1.818907  -0.891006 H	1 RES1 0.0
13 H4	5.226875  0.464398  -0.023859 H	1 RES1 0.0
14 H5	4.778218  2.920077  -0.037695 H	1 RES1 0.0
15 H6	2.422653  3.71882  -0.026964 H	1 RES1 0.0
16 C7	0.002715  1.515271  3.351594 C.3	1 RES1 0.0
17 C8	-0.005937  0.03519  3.126468 C.3	1 RES1 0.0
18 C9	-0.019439  -0.838996  4.210943 C.2	1 RES1 0.0
19 C10	-0.027155  -2.207193  3.962095 C.2	1 RES1 0.0
20 C11	-0.021188  -2.657987  2.64568 C.2	1 RES1 0.0
21 C12	-0.00769  -1.71614  1.629328 C.2	1 RES1 0.0
22 S2	0.0  -2.23  0.0 S.3	1 RES1 0.0
23 N2	-0.0  -0.387525  1.842475 N.pl3	1 RES1 0.0
24 H7	0.892819  1.80661  3.917855 H	1 RES1 0.0
25 H8	0.013002  2.056236  2.399792 H	1 RES1 0.0
26 H9	-0.891006  1.818907  3.905564 H	1 RES1 0.0
27 H10	-0.023859  -0.464398  5.226875 H	1 RES1 0.0
28 H11	-0.037695  -2.920077  4.778218 H	1 RES1 0.0
29 H12	-0.026964  -3.71882  2.422653 H	1 RES1 0.0
30 C13	1.515271  0.002715  -3.351594 C.3	1 RES1 0.0
31 C14	0.03519  -0.005937  -3.126468 C.3	1 RES1 0.0
32 C15	-0.838996  -0.019439  -4.210943 C.2	1 RES1 0.0
33 C16	-2.207193  -0.027155  -3.962095 C.2	1 RES1 0.0
34 C17	-2.657987  -0.021188  -2.64568 C.2	1 RES1 0.0
35 C18	-1.71614  -0.00769  -1.629328 C.2	1 RES1 0.0
36 S3	-2.23  0.0  0.0 S.3	1 RES1 0.0
37 N3	-0.387525  -0.0  -1.842475 N.pl3	1 RES1 0.0
38 H13	1.80661  0.892819  -3.917855 H	1 RES1 0.0
39 H14	2.056236  0.013002  -2.399792 H	1 RES1 0.0
40 H15	1.818907  -0.891006  -3.905564 H	1 RES1 0.0
41 H16	-0.464398  -0.023859  -5.226875 H	1 RES1 0.0
42 H17	-2.920077  -0.037695  -4.778218 H	1 RES1 0.0
43 H18	-3.71882  -0.026964  -2.422653 H	1 RES1 0.0
@<TRIPOS>BOND
1 1 8 1
1 1 9 1
1 1 22 1
1 1 23 1
1 1 36 1
1 1 37 1
1 2 3 1
1 2 10 1
1 2 11 1
1 2 12 1
1 3 4 1
1 3 9 1
1 4 5 2
1 4 13 1
1 5 6 1
1 5 14 1
1 6 7 2
1 6 15 1
1 7 8 1
1 7 9 1
1 16 17 1
1 16 24 1
1 16 25 1
1 16 26 1
1 17 18 1
1 17 23 1
1 18 19 2
1 18 27 1
1 19 20 1
1 19 28 1
1 20 21 2
1 20 29 1
1 21 22 1
1 21 23 1
1 30 31 1
1 30 38 1
1 30 39 1
1 30 40 1
1 31 32 1
1 31 37 1
1 32 33 2
1 32 41 1
1 33 34 1
1 33 42 1
1 34 35 2
1 34 43 1
1 35 36 1
1 35 37 1
@<TRIPOS>SUBSTRUCTURE
1 RES1 43

