@<TRIPOS>MOLECULE
/Users/abdulahmed/Documents/GitHub/HER-metal-complex-ligands/Runs//triphenylphosphine_hydride/triphenylphosphine_hydride
41	39	2
SMALL
PartialCharges
****
Generated from molSimplify

@<TRIPOS>ATOM
1 Ni1	0.0  0.0  0.0 Ni	1 RES1 0.0
2 P1	2.27  -0.0  0.0 P.3	1 RES1 0.0
3 C1	3.125321  -1.367815  -0.872818 C.3	1 RES1 0.0
4 C2	3.125308  -0.071976  1.62097 C.3	1 RES1 0.0
5 C3	3.125324  1.43979  -0.748152 C.3	1 RES1 0.0
6 H1	2.843887  -2.331472  -0.438105 H	1 RES1 0.0
7 H2	4.213421  -1.271495  -0.811348 H	1 RES1 0.0
8 H3	2.843894  -1.379522  -1.929922 H	1 RES1 0.0
9 H4	2.843883  -0.981603  2.159669 H	1 RES1 0.0
10 H5	2.843881  0.786325  2.238169 H	1 RES1 0.0
11 H6	4.213427  -0.066904  1.506828 H	1 RES1 0.0
12 H7	2.843891  1.545148  -1.800066 H	1 RES1 0.0
13 H8	4.213422  1.338396  -0.695466 H	1 RES1 0.0
14 H9	2.843887  2.361129  -0.229741 H	1 RES1 0.0
15 P2	-0.756713  2.14016  0.0 P.3	1 RES1 0.0
16 C4	-0.047476  3.298143  1.23303 C.3	1 RES1 0.0
17 C5	-2.545769  2.414788  0.296871 C.3	1 RES1 0.0
18 C6	-0.532262  3.126736  -1.529901 C.3	1 RES1 0.0
19 H10	-0.233075  2.934011  2.24781 H	1 RES1 0.0
20 H11	-0.480227  4.299244  1.146203 H	1 RES1 0.0
21 H12	1.034815  3.382315  1.097504 H	1 RES1 0.0
22 H13	-2.835544  2.013832  1.272618 H	1 RES1 0.0
23 H14	-3.140808  1.905895  -0.467179 H	1 RES1 0.0
24 H15	-2.802597  3.478112  0.275963 H	1 RES1 0.0
25 H16	0.529826  3.203759  -1.780632 H	1 RES1 0.0
26 H17	-0.930869  4.139909  -1.422161 H	1 RES1 0.0
27 H18	-1.043338  2.64752  -2.370125 H	1 RES1 0.0
28 P3	-0.756711  -1.070067  1.853441 P.3	1 RES1 0.0
29 C7	-0.154477  -0.485507  3.484363 C.3	1 RES1 0.0
30 C8	-0.406357  -2.863809  2.008418 C.3	1 RES1 0.0
31 C9	-2.564669  -1.070465  2.162627 C.3	1 RES1 0.0
32 H19	0.935256  -0.565294  3.538521 H	1 RES1 0.0
33 H20	-0.579682  -1.067994  4.307117 H	1 RES1 0.0
34 H21	-0.423817  0.563961  3.635621 H	1 RES1 0.0
35 H22	0.672873  -3.042771  2.001043 H	1 RES1 0.0
36 H23	-0.844806  -3.411112  1.168754 H	1 RES1 0.0
37 H24	-0.813835  -3.278827  2.935122 H	1 RES1 0.0
38 H25	-2.934506  -0.045377  2.258773 H	1 RES1 0.0
39 H26	-2.820148  -1.611755  3.07846 H	1 RES1 0.0
40 H27	-3.093113  -1.542983  1.329383 H	1 RES1 0.0
41 H28	-0.526698  -0.744805  -1.29006 H	2 RES2 0.0
@<TRIPOS>BOND
1 1 2 1
1 1 15 1
1 1 28 1
1 2 3 1
1 2 4 1
1 2 5 1
1 3 6 1
1 3 7 1
1 3 8 1
1 4 9 1
1 4 10 1
1 4 11 1
1 5 12 1
1 5 13 1
1 5 14 1
1 15 16 1
1 15 17 1
1 15 18 1
1 16 19 1
1 16 20 1
1 16 21 1
1 17 22 1
1 17 23 1
1 17 24 1
1 18 25 1
1 18 26 1
1 18 27 1
1 28 29 1
1 28 30 1
1 28 31 1
1 29 32 1
1 29 33 1
1 29 34 1
1 30 35 1
1 30 36 1
1 30 37 1
1 31 38 1
1 31 39 1
1 31 40 1
@<TRIPOS>SUBSTRUCTURE
1 RES1 40
2 RES2 1

