@<TRIPOS>MOLECULE
/home/jovyan/shared-scratch-kabdelma-pvc/kabdelma/HER-metal-complex-ligands/Runs//ni_tpl_2_1-octanethiol_3_s_1/ni_tpl_2_1-octanethiol_3_s_1_conf_1
82	81	1
SMALL
PartialCharges
****
Generated from molSimplify

@<TRIPOS>ATOM
1 Ni1	0.0  0.0  0.0 Ni	1 RES1 0.0
2 C1	1.756527  6.248085  -0.30235 C.3	1 RES1 0.0
3 C2	2.586209  5.48555  0.717733 C.3	1 RES1 0.0
4 C3	1.756531  4.353532  1.301317 C.3	1 RES1 0.0
5 C4	1.331233  3.410712  0.18749 C.3	1 RES1 0.0
6 C5	2.565294  2.837373  -0.489839 C.3	1 RES1 0.0
7 C6	3.394976  2.074838  0.530243 C.3	1 RES1 0.0
8 C7	2.565298  0.942821  1.113827 C.3	1 RES1 0.0
9 C8	2.14  0.0  -0.0 C.3	1 RES1 0.0
10 S1	3.609508  -0.682725  -0.806556 S.3	1 RES1 0.0
11 H1	1.457138  5.584391  -1.086426 H	1 RES1 0.0
12 H2	2.340577  7.044965  -0.713163 H	1 RES1 0.0
13 H3	0.887813  6.651685  0.174454 H	1 RES1 0.0
14 H4	3.454924  5.081952  0.240928 H	1 RES1 0.0
15 H5	2.885597  6.149245  1.501808 H	1 RES1 0.0
16 H6	2.340584  3.816749  2.019402 H	1 RES1 0.0
17 H7	0.887816  4.757132  1.778121 H	1 RES1 0.0
18 H8	0.747182  2.613832  0.598303 H	1 RES1 0.0
19 H9	0.74718  3.947496  -0.530595 H	1 RES1 0.0
20 H10	2.265906  2.173679  -1.273916 H	1 RES1 0.0
21 H11	3.149344  3.634254  -0.900652 H	1 RES1 0.0
22 H12	4.263691  1.67124  0.053438 H	1 RES1 0.0
23 H13	3.694365  2.738534  1.314319 H	1 RES1 0.0
24 H14	3.149351  0.406038  1.831912 H	1 RES1 0.0
25 H15	1.696584  1.34642  1.590632 H	1 RES1 0.0
26 H16	1.555949  -0.796879  0.410814 H	1 RES1 0.0
27 H17	1.555947  0.536784  -0.718084 H	1 RES1 0.0
28 H18	4.351852  0.330132  -1.328711 H	1 RES1 0.0
29 C9	-3.523602  -0.00609  -5.458898 C.3	1 RES1 0.0
30 C10	-4.337678  0.481937  -4.27167 C.3	1 RES1 0.0
31 C11	-3.831932  -0.1841  -3.002412 C.3	1 RES1 0.0
32 C12	-2.368571  0.16968  -2.793093 C.3	1 RES1 0.0
33 C13	-2.225032  1.677524  -2.665804 C.3	1 RES1 0.0
34 C14	-3.039108  2.165551  -1.478577 C.3	1 RES1 0.0
35 C15	-2.533361  1.499514  -0.209319 C.3	1 RES1 0.0
36 C16	-1.07  1.853294  -0.0 C.3	1 RES1 0.0
37 S2	-0.899076  3.648819  0.151574 S.3	1 RES1 0.0
38 H19	-2.493472  0.242951  -5.31155 H	1 RES1 0.0
39 H20	-3.87962  0.462765  -6.352388 H	1 RES1 0.0
40 H21	-3.624646  -1.067533  -5.548502 H	1 RES1 0.0
41 H22	-4.236634  1.54338  -4.182067 H	1 RES1 0.0
42 H23	-5.367807  0.232895  -4.419019 H	1 RES1 0.0
43 H24	-4.405  0.159445  -2.166667 H	1 RES1 0.0
44 H25	-3.932975  -1.245543  -3.092016 H	1 RES1 0.0
45 H26	-2.012553  -0.299177  -1.899603 H	1 RES1 0.0
46 H27	-1.795503  -0.173866  -3.628839 H	1 RES1 0.0
47 H28	-1.194902  1.926565  -2.518457 H	1 RES1 0.0
48 H29	-2.58105  2.14638  -3.559295 H	1 RES1 0.0
49 H30	-2.938064  3.226994  -1.388974 H	1 RES1 0.0
50 H31	-4.069237  1.916509  -1.625926 H	1 RES1 0.0
51 H32	-3.10643  1.843059  0.626426 H	1 RES1 0.0
52 H33	-2.634405  0.438071  -0.298923 H	1 RES1 0.0
53 H34	-0.713982  1.384437  0.89349 H	1 RES1 0.0
54 H35	-0.496933  1.509749  -0.835745 H	1 RES1 0.0
55 H36	-1.351585  4.244748  -0.984077 H	1 RES1 0.0
56 C17	2.936989  -3.723935  4.440921 C.3	1 RES1 0.0
57 C18	1.423764  -3.808308  4.556815 C.3	1 RES1 0.0
58 C19	0.807032  -2.494208  4.106056 C.3	1 RES1 0.0
59 C20	1.190171  -2.224321  2.660108 C.3	1 RES1 0.0
60 C21	0.676817  -3.352908  1.780813 C.3	1 RES1 0.0
61 C22	-0.836408  -3.437281  1.896707 C.3	1 RES1 0.0
62 C23	-1.453139  -2.123181  1.445948 C.3	1 RES1 0.0
63 C24	-1.07  -1.853294  -0.0 C.3	1 RES1 0.0
64 S3	-1.681298  -3.197203  -1.047055 S.3	1 RES1 0.0
65 H37	3.2067  -3.533949  3.42305 H	1 RES1 0.0
66 H38	3.371135  -4.648992  4.758231 H	1 RES1 0.0
67 H39	3.298363  -2.929469  5.059898 H	1 RES1 0.0
68 H40	1.06239  -4.602775  3.937838 H	1 RES1 0.0
69 H41	1.154053  -3.998294  5.574686 H	1 RES1 0.0
70 H42	-0.258198  -2.553603  4.187641 H	1 RES1 0.0
71 H43	1.168406  -1.699742  4.725033 H	1 RES1 0.0
72 H44	0.756026  -1.299263  2.342799 H	1 RES1 0.0
73 H45	2.255402  -2.164927  2.578524 H	1 RES1 0.0
74 H46	0.946529  -3.162921  0.762942 H	1 RES1 0.0
75 H47	1.110963  -4.277965  2.098123 H	1 RES1 0.0
76 H48	-1.197781  -4.231748  1.27773 H	1 RES1 0.0
77 H49	-1.106119  -3.627267  2.914578 H	1 RES1 0.0
78 H50	-2.51837  -2.182576  1.527533 H	1 RES1 0.0
79 H51	-1.091766  -1.328715  2.064925 H	1 RES1 0.0
80 H52	-1.504146  -0.928236  -0.317309 H	1 RES1 0.0
81 H53	-0.00477  -1.793899  -0.081584 H	1 RES1 0.0
82 H54	-1.129485  -4.372977  -0.643746 H	1 RES1 0.0
@<TRIPOS>BOND
1 1 9 1
1 1 36 1
1 1 63 1
1 2 3 1
1 2 11 1
1 2 12 1
1 2 13 1
1 3 4 1
1 3 14 1
1 3 15 1
1 4 5 1
1 4 16 1
1 4 17 1
1 5 6 1
1 5 18 1
1 5 19 1
1 6 7 1
1 6 20 1
1 6 21 1
1 7 8 1
1 7 22 1
1 7 23 1
1 8 9 1
1 8 24 1
1 8 25 1
1 9 10 1
1 9 26 1
1 9 27 1
1 10 28 1
1 29 30 1
1 29 38 1
1 29 39 1
1 29 40 1
1 30 31 1
1 30 41 1
1 30 42 1
1 31 32 1
1 31 43 1
1 31 44 1
1 32 33 1
1 32 45 1
1 32 46 1
1 33 34 1
1 33 47 1
1 33 48 1
1 34 35 1
1 34 49 1
1 34 50 1
1 35 36 1
1 35 51 1
1 35 52 1
1 36 37 1
1 36 53 1
1 36 54 1
1 37 55 1
1 56 57 1
1 56 65 1
1 56 66 1
1 56 67 1
1 57 58 1
1 57 68 1
1 57 69 1
1 58 59 1
1 58 70 1
1 58 71 1
1 59 60 1
1 59 72 1
1 59 73 1
1 60 61 1
1 60 74 1
1 60 75 1
1 61 62 1
1 61 76 1
1 61 77 1
1 62 63 1
1 62 78 1
1 62 79 1
1 63 64 1
1 63 80 1
1 63 81 1
1 64 82 1
@<TRIPOS>SUBSTRUCTURE
1 RES1 82

