@<TRIPOS>MOLECULE
/Users/abdulahmed/Documents/GitHub/HER-metal-complex-ligands/Runs//piperidine/piperidine
97	102	1
SMALL
PartialCharges
****
Generated from molSimplify

@<TRIPOS>ATOM
1 Ni1	0.0  0.0  0.0 Ni	1 RES1 0.0
2 C1	-1.13692  4.76087  0.405328 C.3	1 RES1 0.0
3 C2	-1.664235  3.75216  -0.617793 C.3	1 RES1 0.0
4 C3	-0.59464  2.907555  -1.048146 C.3	1 RES1 0.0
5 N1	-0.0  2.14  0.0 N.3	1 RES1 0.0
6 C4	0.59464  3.083517  1.048146 C.3	1 RES1 0.0
7 C5	-0.508911  4.003381  1.579855 C.3	1 RES1 0.0
8 H1	-1.942621  5.369684  0.75901 H	1 RES1 0.0
9 H2	-0.398895  5.384579  -0.054243 H	1 RES1 0.0
10 H3	-2.43113  3.156165  -0.168835 H	1 RES1 0.0
11 H4	-2.06663  4.275384  -1.459942 H	1 RES1 0.0
12 H5	0.170117  3.549585  -1.43265 H	1 RES1 0.0
13 H6	-0.975703  2.231726  -1.784995 H	1 RES1 0.0
14 H7	1.37062  3.671509  0.604276 H	1 RES1 0.0
15 H8	1.003122  2.511074  1.854589 H	1 RES1 0.0
16 H9	-0.093483  4.699722  2.278016 H	1 RES1 0.0
17 H10	-1.258103  3.418035  2.070752 H	1 RES1 0.0
18 C6	4.76087  -1.206528  -0.034162 C.3	1 RES1 0.0
19 C7	3.75216  -1.391873  1.101833 C.3	1 RES1 0.0
20 C8	2.907555  -0.241641  1.1806 C.3	1 RES1 0.0
21 N2	2.14  0.0  0.0 N.3	1 RES1 0.0
22 C9	3.083517  0.241641  -1.1806 C.3	1 RES1 0.0
23 C10	4.003381  -0.972205  -1.345269 C.3	1 RES1 0.0
24 H11	5.369684  -2.082089  -0.121558 H	1 RES1 0.0
25 H12	5.384579  -0.362609  0.174853 H	1 RES1 0.0
26 H13	3.156165  -2.259969  0.911832 H	1 RES1 0.0
27 H14	4.275384  -1.514335  2.027111 H	1 RES1 0.0
28 H15	3.549585  0.604504  1.309962 H	1 RES1 0.0
29 H16	2.231726  -0.376355  1.999139 H	1 RES1 0.0
30 H17	3.671509  1.116805  -0.998245 H	1 RES1 0.0
31 H18	2.511074  0.380926  -2.073801 H	1 RES1 0.0
32 H19	4.699722  -0.792853  -2.137634 H	1 RES1 0.0
33 H20	3.418035  -1.836425  -1.580627 H	1 RES1 0.0
34 C11	-1.206528  -4.76087  -0.034162 C.3	1 RES1 0.0
35 C12	-1.391873  -3.75216  1.101833 C.3	1 RES1 0.0
36 C13	-0.241641  -2.907555  1.1806 C.3	1 RES1 0.0
37 N3	0.0  -2.14  0.0 N.3	1 RES1 0.0
38 C14	0.241641  -3.083517  -1.1806 C.3	1 RES1 0.0
39 C15	-0.972205  -4.003381  -1.345269 C.3	1 RES1 0.0
40 H21	-2.082089  -5.369684  -0.121558 H	1 RES1 0.0
41 H22	-0.362609  -5.384579  0.174853 H	1 RES1 0.0
42 H23	-2.259969  -3.156165  0.911832 H	1 RES1 0.0
43 H24	-1.514335  -4.275384  2.027111 H	1 RES1 0.0
44 H25	0.604504  -3.549585  1.309962 H	1 RES1 0.0
45 H26	-0.376355  -2.231726  1.999139 H	1 RES1 0.0
46 H27	1.116805  -3.671509  -0.998245 H	1 RES1 0.0
47 H28	0.380926  -2.511074  -2.073801 H	1 RES1 0.0
48 H29	-0.792853  -4.699722  -2.137634 H	1 RES1 0.0
49 H30	-1.836425  -3.418035  -1.580627 H	1 RES1 0.0
50 C16	-4.76087  -1.196348  0.160092 C.3	1 RES1 0.0
51 C17	-3.75216  -1.499421  -0.950306 C.3	1 RES1 0.0
52 C18	-2.907555  -0.363724  -1.148874 C.3	1 RES1 0.0
53 N4	-2.14  0.0  0.0 N.3	1 RES1 0.0
54 C19	-3.083517  0.363724  1.148874 C.3	1 RES1 0.0
55 C20	-4.003381  -0.82626  1.439523 C.3	1 RES1 0.0
56 H31	-5.369684  -2.057977  0.33853 H	1 RES1 0.0
57 H32	-5.384579  -0.3789  -0.135992 H	1 RES1 0.0
58 H33	-3.156165  -2.342901  -0.670606 H	1 RES1 0.0
59 H34	-4.275384  -1.71793  -1.857715 H	1 RES1 0.0
60 H35	-3.549585  0.464264  -1.365974 H	1 RES1 0.0
61 H36	-2.231726  -0.58326  -1.948848 H	1 RES1 0.0
62 H37	-3.671509  1.215032  0.876039 H	1 RES1 0.0
63 H38	-2.511074  0.595611  2.022623 H	1 RES1 0.0
64 H39	-4.699722  -0.565066  2.208799 H	1 RES1 0.0
65 H40	-3.418035  -1.661144  1.763927 H	1 RES1 0.0
66 C21	-0.483648  1.105876  4.76087 C.3	1 RES1 0.0
67 C22	0.500197  1.703276  3.75216 C.3	1 RES1 0.0
68 C23	1.004112  0.666306  2.907555 C.3	1 RES1 0.0
69 N5	0.0  0.0  2.14 N.3	1 RES1 0.0
70 C24	-1.004112  -0.666306  3.083517 C.3	1 RES1 0.0
71 C25	-1.611506  0.397466  4.003381 C.3	1 RES1 0.0
72 H41	-0.892671  1.884943  5.369684 H	1 RES1 0.0
73 H42	0.026285  0.401707  5.384579 H	1 RES1 0.0
74 H43	-0.001163  2.436985  3.156165 H	1 RES1 0.0
75 H44	1.312225  2.163436  4.275384 H	1 RES1 0.0
76 H45	1.441027  -0.069766  3.549585 H	1 RES1 0.0
77 H46	1.712585  1.097841  2.231726 H	1 RES1 0.0
78 H47	-0.507194  -1.409433  3.671509 H	1 RES1 0.0
79 H48	-1.780097  -1.130048  2.511074 H	1 RES1 0.0
80 H49	-2.278988  -0.065651  4.699722 H	1 RES1 0.0
81 H50	-2.153469  1.11059  3.418035 H	1 RES1 0.0
82 C26	0.405328  1.13692  -4.76087 C.3	1 RES1 0.0
83 C27	-0.617793  1.664235  -3.75216 C.3	1 RES1 0.0
84 C28	-1.048146  0.59464  -2.907555 C.3	1 RES1 0.0
85 N6	0.0  0.0  -2.14 N.3	1 RES1 0.0
86 C29	1.048146  -0.59464  -3.083517 C.3	1 RES1 0.0
87 C30	1.579855  0.508911  -4.003381 C.3	1 RES1 0.0
88 H51	0.75901  1.942621  -5.369684 H	1 RES1 0.0
89 H52	-0.054243  0.398895  -5.384579 H	1 RES1 0.0
90 H53	-0.168835  2.43113  -3.156165 H	1 RES1 0.0
91 H54	-1.459942  2.06663  -4.275384 H	1 RES1 0.0
92 H55	-1.43265  -0.170117  -3.549585 H	1 RES1 0.0
93 H56	-1.784995  0.975703  -2.231726 H	1 RES1 0.0
94 H57	0.604276  -1.37062  -3.671509 H	1 RES1 0.0
95 H58	1.854589  -1.003122  -2.511074 H	1 RES1 0.0
96 H59	2.278016  0.093483  -4.699722 H	1 RES1 0.0
97 H60	2.070752  1.258103  -3.418035 H	1 RES1 0.0
@<TRIPOS>BOND
1 1 5 1
1 1 21 1
1 1 37 1
1 1 53 1
1 1 69 1
1 1 85 1
1 2 3 1
1 2 7 1
1 2 8 1
1 2 9 1
1 3 4 1
1 3 10 1
1 3 11 1
1 4 5 1
1 4 12 1
1 4 13 1
1 5 6 1
1 6 7 1
1 6 14 1
1 6 15 1
1 7 16 1
1 7 17 1
1 18 19 1
1 18 23 1
1 18 24 1
1 18 25 1
1 19 20 1
1 19 26 1
1 19 27 1
1 20 21 1
1 20 28 1
1 20 29 1
1 21 22 1
1 22 23 1
1 22 30 1
1 22 31 1
1 23 32 1
1 23 33 1
1 34 35 1
1 34 39 1
1 34 40 1
1 34 41 1
1 35 36 1
1 35 42 1
1 35 43 1
1 36 37 1
1 36 44 1
1 36 45 1
1 37 38 1
1 38 39 1
1 38 46 1
1 38 47 1
1 39 48 1
1 39 49 1
1 50 51 1
1 50 55 1
1 50 56 1
1 50 57 1
1 51 52 1
1 51 58 1
1 51 59 1
1 52 53 1
1 52 60 1
1 52 61 1
1 53 54 1
1 54 55 1
1 54 62 1
1 54 63 1
1 55 64 1
1 55 65 1
1 66 67 1
1 66 71 1
1 66 72 1
1 66 73 1
1 67 68 1
1 67 74 1
1 67 75 1
1 68 69 1
1 68 76 1
1 68 77 1
1 69 70 1
1 70 71 1
1 70 78 1
1 70 79 1
1 71 80 1
1 71 81 1
1 82 83 1
1 82 87 1
1 82 88 1
1 82 89 1
1 83 84 1
1 83 90 1
1 83 91 1
1 84 85 1
1 84 92 1
1 84 93 1
1 85 86 1
1 86 87 1
1 86 94 1
1 86 95 1
1 87 96 1
1 87 97 1
@<TRIPOS>SUBSTRUCTURE
1 RES1 97

