@<TRIPOS>MOLECULE
/Users/abdulahmed/Documents/GitHub/HER-metal-complex-ligands/Runs//ni_oct_2_2bromoethylaminehydrobromide_5_hydride_1_s_1/badjob_ni_oct_2_2bromoethylaminehydrobromide_5_hydride_1_s_1_conf_1
62	118	1
SMALL
PartialCharges
****
Generated from molSimplify

@<TRIPOS>ATOM
1 Ni1	0.0  0.0  0.0 Ni	1 RES1 0.0
2 H1	-0.054505  2.23166  -0.12426 H	1 RES1 0.0
3 Br1	0.011455  2.182427  -0.001512 Br	1 RES1 0.0
4 N1	0.0  2.14  -0.0 N.3	1 RES1 0.0
5 C1	-1.44811  2.106589  -0.250523 C.3	1 RES1 0.0
6 C2	-1.700877  1.932157  -1.739175 C.3	1 RES1 0.0
7 Br2	-0.893858  0.252424  -2.346477 Br	1 RES1 0.0
8 H2	0.419984  1.265855  -0.316044 H	1 RES1 0.0
9 H3	0.415211  2.920274  -0.509089 H	1 RES1 0.0
10 H4	-1.883674  1.288065  0.283519 H	1 RES1 0.0
11 H5	-1.888677  3.023586  0.081014 H	1 RES1 0.0
12 H6	-2.754944  1.907839  -1.921527 H	1 RES1 0.0
13 H7	-1.265313  2.750682  -2.273216 H	1 RES1 0.0
14 H8	2.23166  -0.100986  0.090627 H	1 RES1 0.0
15 Br3	2.182427  0.009806  0.00611 Br	1 RES1 0.0
16 N2	2.14  0.0  -0.0 N.3	1 RES1 0.0
17 C3	2.106589  -1.422196  -0.370329 C.3	1 RES1 0.0
18 C4	1.932157  -2.26758  0.88079 C.3	1 RES1 0.0
19 Br4	0.252424  -1.78368  1.767321 Br	1 RES1 0.0
20 H9	1.265855  0.251831  0.461359 H	1 RES1 0.0
21 H10	2.920274  0.167704  0.635175 H	1 RES1 0.0
22 H11	1.288065  -1.598121  -1.036637 H	1 RES1 0.0
23 H12	3.023586  -1.686366  -0.854302 H	1 RES1 0.0
24 H13	1.907839  -3.302783  0.61123 H	1 RES1 0.0
25 H14	2.750682  -2.091653  1.547098 H	1 RES1 0.0
26 H15	-0.114463  -2.23166  0.072867 H	1 RES1 0.0
27 Br5	0.008673  -2.182427  0.007634 Br	1 RES1 0.0
28 N3	0.0  -2.14  0.0 N.3	1 RES1 0.0
29 C5	-1.342357  -2.106589  -0.598216 C.3	1 RES1 0.0
30 C6	-2.381202  -1.932157  0.497583 C.3	1 RES1 0.0
31 Br6	-2.049003  -0.252424  1.451386 Br	1 RES1 0.0
32 H16	0.172884  -1.265855  0.496369 H	1 RES1 0.0
33 H17	0.06143  -2.920274  0.654063 H	1 RES1 0.0
34 H18	-1.406799  -1.288065  -1.284338 H	1 RES1 0.0
35 H19	-1.523711  -3.023586  -1.118915 H	1 RES1 0.0
36 H20	-3.358291  -1.907839  0.062146 H	1 RES1 0.0
37 H21	-2.316758  -2.750682  1.183705 H	1 RES1 0.0
38 H22	-2.23166  -0.04742  0.127133 H	1 RES1 0.0
39 Br7	-2.182427  -0.009273  -0.006892 Br	1 RES1 0.0
40 N4	-2.14  0.0  0.0 N.3	1 RES1 0.0
41 C7	-2.106589  0.864762  1.188264 C.3	1 RES1 0.0
42 C8	-1.932157  0.009449  2.432616 C.3	1 RES1 0.0
43 Br8	-0.252424  -0.992635  2.306428 Br	1 RES1 0.0
44 H23	-1.265855  -0.521495  -0.065674 H	1 RES1 0.0
45 H24	-2.920274  -0.652508  0.076189 H	1 RES1 0.0
46 H25	-1.288065  1.549254  1.108342 H	1 RES1 0.0
47 H26	-3.023586  1.411818  1.257153 H	1 RES1 0.0
48 H27	-1.907839  0.638902  3.297542 H	1 RES1 0.0
49 H28	-2.750682  -0.675043  2.512537 H	1 RES1 0.0
50 H29	0.122393  0.058577  2.23166 H	1 RES1 0.0
51 Br9	0.001889  -0.011398  2.182427 Br	1 RES1 0.0
52 N5	0.0  0.0  2.14 N.3	1 RES1 0.0
53 C9	0.202592  1.455589  2.106589 C.3	1 RES1 0.0
54 C10	1.68209  1.757352  1.932157 C.3	1 RES1 0.0
55 Br10	2.315697  0.970816  0.252424 Br	1 RES1 0.0
56 H30	0.329733  -0.409325  1.265855 H	1 RES1 0.0
57 H31	0.522516  -0.398182  2.920274 H	1 RES1 0.0
58 H32	-0.345535  1.87329  1.288065 H	1 RES1 0.0
59 H33	-0.143306  1.884974  3.023586 H	1 RES1 0.0
60 H34	1.829553  2.816863  1.907839 H	1 RES1 0.0
61 H35	2.230216  1.339651  2.750682 H	1 RES1 0.0
62 H36	-0.0  0.0  -1.58 H	1 RES1 0.0
@<TRIPOS>BOND
1 1 4 1
1 1 7 1
1 1 16 1
1 1 28 1
1 1 40 1
1 1 52 1
1 2 3 1
1 2 4 1
1 3 4 1
1 3 5 1
1 3 8 1
1 3 9 1
1 3 55 1
1 3 58 1
1 4 5 1
1 4 8 1
1 4 9 1
1 5 6 1
1 5 10 1
1 5 11 1
1 6 7 1
1 6 12 1
1 6 13 1
1 7 62 1
1 10 39 1
1 10 41 1
1 14 15 1
1 14 16 1
1 14 55 1
1 15 16 1
1 15 17 1
1 15 20 1
1 15 21 1
1 15 55 1
1 16 17 1
1 16 20 1
1 16 21 1
1 16 55 1
1 17 18 1
1 17 22 1
1 17 23 1
1 18 19 1
1 18 24 1
1 18 25 1
1 18 27 1
1 19 27 1
1 19 28 1
1 19 32 1
1 19 33 1
1 19 43 1
1 19 51 1
1 19 52 1
1 19 56 1
1 20 55 1
1 21 55 1
1 26 27 1
1 26 28 1
1 27 28 1
1 27 29 1
1 27 32 1
1 27 33 1
1 27 43 1
1 28 29 1
1 28 32 1
1 28 33 1
1 29 30 1
1 29 34 1
1 29 35 1
1 30 31 1
1 30 36 1
1 30 37 1
1 30 39 1
1 31 38 1
1 31 39 1
1 31 40 1
1 31 41 1
1 31 42 1
1 31 43 1
1 31 44 1
1 31 45 1
1 31 49 1
1 31 51 1
1 38 39 1
1 38 40 1
1 39 40 1
1 39 41 1
1 39 44 1
1 39 45 1
1 40 41 1
1 40 44 1
1 40 45 1
1 41 42 1
1 41 46 1
1 41 47 1
1 42 43 1
1 42 48 1
1 42 49 1
1 42 51 1
1 43 50 1
1 43 51 1
1 43 52 1
1 43 56 1
1 43 57 1
1 50 51 1
1 50 52 1
1 51 52 1
1 51 53 1
1 51 56 1
1 51 57 1
1 52 53 1
1 52 56 1
1 52 57 1
1 53 54 1
1 53 58 1
1 53 59 1
1 54 55 1
1 54 60 1
1 54 61 1
@<TRIPOS>SUBSTRUCTURE
1 RES1 62

