@<TRIPOS>MOLECULE
/Users/abdulahmed/Documents/GitHub/HER-metal-complex-ligands/Runs//2_bromoethylamine_hydrobromide_hydride/2_bromoethylamine_hydrobromide_hydride
47	45	2
SMALL
PartialCharges
****
Generated from molSimplify

@<TRIPOS>ATOM
1 Ni1	0.0  0.0  0.0 Ni	1 RES1 0.0
2 N1	0.0  2.14  0.0 N.3	1 RES1 0.0
3 C1	-0.891641  3.259482  -0.335614 C.3	1 RES1 0.0
4 C2	-1.12546  4.109727  0.902454 C.3	1 RES1 0.0
5 Br1	0.587889  4.809822  1.547358 Br	1 RES1 0.0
6 H1	0.891641  2.504334  0.335614 H	1 RES1 0.0
7 H2	-0.440713  3.858008  -1.099375 H	1 RES1 0.0
8 H3	-1.82699  2.877288  -0.687679 H	1 RES1 0.0
9 H4	-1.774479  4.924587  0.658163 H	1 RES1 0.0
10 H5	-1.576389  3.5112  1.666214 H	1 RES1 0.0
11 N2	2.14  0.0  0.0 N.3	1 RES1 0.0
12 C3	3.259482  0.240573  0.921838 C.3	1 RES1 0.0
13 C4	4.109727  -1.015153  1.024963 C.3	1 RES1 0.0
14 Br2	4.809822  -1.47743  -0.746411 Br	1 RES1 0.0
15 H6	2.504334  -0.240573  -0.921838 H	1 RES1 0.0
16 H7	3.858008  1.047285  0.553215 H	1 RES1 0.0
17 H8	2.877288  0.49294  1.888864 H	1 RES1 0.0
18 H9	4.924587  -0.840041  1.695962 H	1 RES1 0.0
19 H10	3.5112  -1.821864  1.393586 H	1 RES1 0.0
20 N3	0.0  -2.14  0.0 N.3	1 RES1 0.0
21 C5	0.304291  -3.259482  0.902811 C.3	1 RES1 0.0
22 C6	-0.941182  -4.109727  1.09328 C.3	1 RES1 0.0
23 Br3	-1.525898  -4.809822  -0.641533 Br	1 RES1 0.0
24 H11	-0.304291  -2.504334  -0.902811 H	1 RES1 0.0
25 H12	1.083324  -3.858008  0.478812 H	1 RES1 0.0
26 H13	0.623499  -2.877288  1.849877 H	1 RES1 0.0
27 H14	-0.71969  -4.924587  1.750429 H	1 RES1 0.0
28 H15	-1.720214  -3.5112  1.517278 H	1 RES1 0.0
29 N4	-2.14  0.0  0.0 N.3	1 RES1 0.0
30 C7	-3.259482  0.056065  0.951061 C.3	1 RES1 0.0
31 C8	-4.109727  1.282199  0.661098 C.3	1 RES1 0.0
32 Br4	-4.809822  1.174466  -1.16643 Br	1 RES1 0.0
33 H16	-2.504334  -0.056065  -0.951061 H	1 RES1 0.0
34 H17	-3.858008  -0.825075  0.849767 H	1 RES1 0.0
35 H18	-2.877288  0.114878  1.948743 H	1 RES1 0.0
36 H19	-4.924587  1.323007  1.353369 H	1 RES1 0.0
37 H20	-3.5112  2.163337  0.762392 H	1 RES1 0.0
38 N5	0.0  0.0  2.14 N.3	1 RES1 0.0
39 C9	-0.426977  -0.851675  3.259482 C.3	1 RES1 0.0
40 C10	0.779867  -1.213627  4.109727 C.3	1 RES1 0.0
41 Br5	1.600332  0.422925  4.809822 Br	1 RES1 0.0
42 H21	0.426977  0.851675  2.504334 H	1 RES1 0.0
43 H22	-1.139419  -0.323383  3.858008 H	1 RES1 0.0
44 H23	-0.874884  -1.7451  2.877288 H	1 RES1 0.0
45 H24	0.469073  -1.833555  4.924587 H	1 RES1 0.0
46 H25	1.492309  -1.74192  3.5112 H	1 RES1 0.0
47 H26	-0.0  0.0  -1.58 H	2 RES2 0.0
@<TRIPOS>BOND
1 1 2 1
1 1 11 1
1 1 20 1
1 1 29 1
1 1 38 1
1 2 3 1
1 2 6 1
1 3 4 1
1 3 7 1
1 3 8 1
1 4 5 1
1 4 9 1
1 4 10 1
1 11 12 1
1 11 15 1
1 12 13 1
1 12 16 1
1 12 17 1
1 13 14 1
1 13 18 1
1 13 19 1
1 20 21 1
1 20 24 1
1 21 22 1
1 21 25 1
1 21 26 1
1 22 23 1
1 22 27 1
1 22 28 1
1 29 30 1
1 29 33 1
1 30 31 1
1 30 34 1
1 30 35 1
1 31 32 1
1 31 36 1
1 31 37 1
1 38 39 1
1 38 42 1
1 39 40 1
1 39 43 1
1 39 44 1
1 40 41 1
1 40 45 1
1 40 46 1
@<TRIPOS>SUBSTRUCTURE
1 RES1 46
2 RES2 1

