@<TRIPOS>MOLECULE
/Users/abdulahmed/Documents/GitHub/HER-metal-complex-ligands/Runs//ni_oct_2_ethylpiperidine3carboxylate_5_hydride_1_s_1/badjob_ni_oct_2_ethylpiperidine3carboxylate_5_hydride_1_s_1_conf_1
132	219	1
SMALL
PartialCharges
****
Generated from molSimplify

@<TRIPOS>ATOM
1 Ni1	0.0  0.0  0.0 Ni	1 RES1 0.0
2 C1	5.10653  4.881487  0.690081 C.3	1 RES1 0.0
3 C2	4.056397  4.978854  -0.404515 C.3	1 RES1 0.0
4 O1	3.067562  3.980061  -0.201985 O.3	1 RES1 0.0
5 C3	3.434182  2.608207  -0.199375 C.2	1 RES1 0.0
6 O2	4.647313  2.274317  -0.378304 O.2	1 RES1 0.0
7 C4	2.37571  1.539077  0.017418 C.3	1 RES1 0.0
8 C5	2.257284  0.926511  -1.376393 C.3	1 RES1 0.0
9 C6	1.078116  1.54428  -2.125697 C.3	1 RES1 0.0
10 C7	-0.186232  1.470082  -1.285783 C.3	1 RES1 0.0
11 N1	0.0  2.14  0.0 N.3	1 RES1 0.0
12 C8	1.057568  1.457304  0.756433 C.3	1 RES1 0.0
13 H1	4.642693  5.026906  1.64329 H	1 RES1 0.0
14 H2	5.851638  5.634099  0.53747 H	1 RES1 0.0
15 H3	5.5645  3.914916  0.660021 H	1 RES1 0.0
16 H4	3.59843  5.945426  -0.374455 H	1 RES1 0.0
17 H5	4.520236  4.833435  -1.357724 H	1 RES1 0.0
18 H6	2.779419  1.141727  0.92518 H	1 RES1 0.0
19 H7	3.157565  1.12112  -1.920932 H	1 RES1 0.0
20 H8	2.105371  -0.128862  -1.286892 H	1 RES1 0.0
21 H9	1.297994  2.571559  -2.3288 H	1 RES1 0.0
22 H10	0.924467  1.011197  -3.040637 H	1 RES1 0.0
23 H11	-0.9766  1.960404  -1.814748 H	1 RES1 0.0
24 H12	-0.432015  0.443112  -1.113088 H	1 RES1 0.0
25 H13	-0.871336  2.108978  0.52935 H	1 RES1 0.0
26 H14	0.789818  0.427943  0.873161 H	1 RES1 0.0
27 H15	1.161594  1.92258  1.714346 H	1 RES1 0.0
28 C9	4.881487  -4.993201  -1.273108 C.3	1 RES1 0.0
29 C10	4.978854  -3.609492  -1.894613 C.3	1 RES1 0.0
30 O3	3.980061  -2.768529  -1.336406 O.3	1 RES1 0.0
31 C11	2.608207  -3.109431  -1.471324 C.2	1 RES1 0.0
32 O4	2.274317  -4.167199  -2.091671 O.2	1 RES1 0.0
33 C12	1.539077  -2.209245  -0.873807 C.3	1 RES1 0.0
34 C13	0.926511  -1.577311  -2.121763 C.3	1 RES1 0.0
35 C14	1.54428  -0.203311  -2.374782 C.3	1 RES1 0.0
36 C15	1.470082  0.654334  -1.122393 C.3	1 RES1 0.0
37 N2	2.14  0.0  0.0 N.3	1 RES1 0.0
38 C16	1.457304  -1.263925  0.30518 C.3	1 RES1 0.0
39 H16	5.026906  -4.920217  -0.215551 H	1 RES1 0.0
40 H17	5.634099  -5.626884  -1.693729 H	1 RES1 0.0
41 H18	3.914916  -5.406562  -1.472538 H	1 RES1 0.0
42 H19	5.945426  -3.196133  -1.695184 H	1 RES1 0.0
43 H20	4.833435  -3.682477  -2.95217 H	1 RES1 0.0
44 H21	1.141727  -2.923611  -0.183377 H	1 RES1 0.0
45 H22	1.12112  -2.208049  -2.963901 H	1 RES1 0.0
46 H23	-0.128862  -1.469988  -1.981872 H	1 RES1 0.0
47 H24	2.571559  -0.331095  -2.645463 H	1 RES1 0.0
48 H25	1.011197  0.281891  -3.165541 H	1 RES1 0.0
49 H26	1.960404  1.585304  -1.316764 H	1 RES1 0.0
50 H27	0.443112  0.817527  -0.870202 H	1 RES1 0.0
51 H28	2.108978  0.60959  0.817213 H	1 RES1 0.0
52 H29	0.427943  -1.059399  0.51371 H	1 RES1 0.0
53 H30	1.92258  -1.719217  1.154373 H	1 RES1 0.0
54 C17	-2.753782  -4.881487  4.355405 C.3	1 RES1 0.0
55 C18	-2.917279  -4.978854  2.847363 C.3	1 RES1 0.0
56 O5	-2.12652  -3.980061  2.220055 O.3	1 RES1 0.0
57 C19	-2.36018  -2.608207  2.50258 C.3	1 RES1 0.0
58 O6	-3.277033  -2.274317  3.31688 O.3	1 RES1 0.0
59 C20	-1.513734  -1.539077  1.831096 C.3	1 RES1 0.0
60 C21	-2.505333  -0.926511  0.844451 C.3	1 RES1 0.0
61 C22	-2.321378  -1.54428  -0.540487 C.3	1 RES1 0.0
62 C23	-0.865259  -1.470082  -0.969147 C.3	1 RES1 0.0
63 N3	0.0  -2.14  0.0 N.3	1 RES1 0.0
64 C24	-0.10033  -1.457304  1.29637 C.3	1 RES1 0.0
65 H31	-1.725432  -5.026906  4.612796 H	1 RES1 0.0
66 H32	-3.349634  -5.634099  4.828094 H	1 RES1 0.0
67 H33	-3.071186  -3.914916  4.686907 H	1 RES1 0.0
68 H34	-2.599876  -5.945426  2.515862 H	1 RES1 0.0
69 H35	-3.945629  -4.833435  2.589973 H	1 RES1 0.0
70 H36	-1.077847  -1.141727  2.723853 H	1 RES1 0.0
71 H37	-3.501162  -1.12112  1.184084 H	1 RES1 0.0
72 H38	-2.339123  0.128862  0.785609 H	1 RES1 0.0
73 H39	-2.618299  -2.571559  -0.502603 H	1 RES1 0.0
74 H40	-2.923499  -1.011197  -1.246301 H	1 RES1 0.0
75 H41	-0.762431  -1.960404  -1.914616 H	1 RES1 0.0
76 H42	-0.574981  -0.443112  -1.046422 H	1 RES1 0.0
77 H43	0.96559  -2.108978  -0.327222 H	1 RES1 0.0
78 H44	0.161195  -0.427943  1.166293 H	1 RES1 0.0
79 H45	0.566606  -1.92258  1.991793 H	1 RES1 0.0
80 C25	-4.881487  -2.23431  4.643352 C.3	1 RES1 0.0
81 C26	-4.978854  -0.868779  3.982865 C.3	1 RES1 0.0
82 O7	-3.980061  -0.75583  2.979842 O.3	1 RES1 0.0
83 C27	-2.608207  -0.871604  3.327711 C.3	1 RES1 0.0
84 O8	-2.274317  -1.076311  4.53676 O.3	1 RES1 0.0
85 C28	-1.539077  -0.7507  2.254052 C.3	1 RES1 0.0
86 C29	-0.926511  0.611489  2.572133 C.3	1 RES1 0.0
87 C30	-1.54428  1.688502  1.682226 C.3	1 RES1 0.0
88 C31	-1.470082  1.280401  0.220211 C.3	1 RES1 0.0
89 N4	-2.14  0.0  0.0 N.3	1 RES1 0.0
90 C32	-1.457304  -1.046217  0.772056 C.3	1 RES1 0.0
91 H46	-5.026906  -2.997533  3.907659 H	1 RES1 0.0
92 H47	-5.634099  -2.31942  5.399151 H	1 RES1 0.0
93 H48	-3.914916  -2.347242  5.088196 H	1 RES1 0.0
94 H49	-5.945426  -0.755848  3.538023 H	1 RES1 0.0
95 H50	-4.833435  -0.105557  4.718559 H	1 RES1 0.0
96 H51	-1.141727  -1.738786  2.357489 H	1 RES1 0.0
97 H52	-1.12112  0.851173  3.596623 H	1 RES1 0.0
98 H53	0.128862  0.573312  2.399998 H	1 RES1 0.0
99 H54	-2.571559  1.813718  1.954105 H	1 RES1 0.0
100 H55	-1.011197  2.606141  1.818829 H	1 RES1 0.0
101 H56	-1.960404  2.027714  -0.368013 H	1 RES1 0.0
102 H57	-0.443112  1.19211  -0.066907 H	1 RES1 0.0
103 H58	-2.108978  -0.234184  -0.992268 H	1 RES1 0.0
104 H59	-0.427943  -1.074493  0.48134 H	1 RES1 0.0
105 H60	-1.92258  -1.989392  0.57498 H	1 RES1 0.0
106 C33	4.832772  1.788066  4.881487 C.3	1 RES1 0.0
107 C34	3.391678  2.261529  4.978854 C.3	1 RES1 0.0
108 O9	2.61367  1.618475  3.980061 O.3	1 RES1 0.0
109 C35	2.938601  1.788288  2.608207 C.2	1 RES1 0.0
110 O10	3.925731  2.515804  2.274317 O.2	1 RES1 0.0
111 C36	2.105805  1.099949  1.539077 C.3	1 RES1 0.0
112 C37	1.346886  2.275014  0.926511 C.3	1 RES1 0.0
113 C38	-0.046035  2.383024  1.54428 C.3	1 RES1 0.0
114 C39	-0.768072  1.047848  1.470082 C.3	1 RES1 0.0
115 N5	0.0  0.0  2.14 N.3	1 RES1 0.0
116 C40	1.288901  -0.171392  1.457304 C.3	1 RES1 0.0
117 H61	4.870733  0.728673  5.026906 H	1 RES1 0.0
118 H62	5.419017  2.27262  5.634099 H	1 RES1 0.0
119 H63	5.223023  2.029611  3.914916 H	1 RES1 0.0
120 H64	3.001429  2.019985  5.945426 H	1 RES1 0.0
121 H65	3.353718  3.320921  4.833435 H	1 RES1 0.0
122 H66	2.888427  0.487973  1.141727 H	1 RES1 0.0
123 H67	1.886141  3.178469  1.12112 H	1 RES1 0.0
124 H68	1.254773  2.12467  -0.128862 H	1 RES1 0.0
125 H69	0.052755  2.66558  2.571559 H	1 RES1 0.0
126 H70	-0.611236  3.118734  1.011197 H	1 RES1 0.0
127 H71	-1.714259  1.143842  1.960404 H	1 RES1 0.0
128 H72	-0.90401  0.77998  0.443112 H	1 RES1 0.0
129 H73	-0.520829  -0.876456  2.108978 H	1 RES1 0.0
130 H74	1.107292  -0.400158  0.427943 H	1 RES1 0.0
131 H75	1.830463  -0.968342  1.92258 H	1 RES1 0.0
132 H76	-0.0  0.0  -1.58 H	1 RES1 0.0
@<TRIPOS>BOND
1 1 12 1
1 1 36 1
1 1 38 1
1 1 64 1
1 1 90 1
1 1 116 1
1 2 3 1
1 2 13 1
1 2 14 1
1 2 15 1
1 3 4 1
1 3 16 1
1 3 17 1
1 4 5 1
1 5 6 2
1 5 7 1
1 7 8 1
1 7 12 1
1 7 18 1
1 7 36 1
1 7 37 1
1 7 51 1
1 7 111 1
1 7 112 1
1 7 124 1
1 8 9 1
1 8 19 1
1 8 20 1
1 8 35 1
1 8 36 1
1 8 37 1
1 8 49 1
1 9 10 1
1 9 21 1
1 9 22 1
1 9 36 1
1 9 49 1
1 10 11 1
1 10 23 1
1 10 24 1
1 10 50 1
1 10 102 1
1 11 12 1
1 11 25 1
1 11 88 1
1 11 102 1
1 11 112 1
1 11 113 1
1 11 124 1
1 12 26 1
1 12 27 1
1 12 111 1
1 12 112 1
1 12 113 1
1 12 124 1
1 18 111 1
1 18 122 1
1 20 35 1
1 20 36 1
1 22 48 1
1 24 132 1
1 25 88 1
1 26 116 1
1 27 111 1
1 27 112 1
1 27 113 1
1 28 29 1
1 28 39 1
1 28 40 1
1 28 41 1
1 29 30 1
1 29 42 1
1 29 43 1
1 30 31 1
1 31 32 2
1 31 33 1
1 33 34 1
1 33 38 1
1 33 44 1
1 33 77 1
1 34 35 1
1 34 45 1
1 34 46 1
1 35 36 1
1 35 47 1
1 35 48 1
1 36 37 1
1 36 49 1
1 36 50 1
1 37 38 1
1 37 51 1
1 37 116 1
1 37 130 1
1 38 52 1
1 38 53 1
1 38 63 1
1 38 77 1
1 38 116 1
1 38 130 1
1 44 77 1
1 46 62 1
1 46 75 1
1 51 111 1
1 51 116 1
1 52 63 1
1 52 64 1
1 54 55 1
1 54 65 1
1 54 66 1
1 54 67 1
1 55 56 1
1 55 68 1
1 55 69 1
1 56 57 1
1 57 58 1
1 57 59 1
1 58 83 1
1 59 60 1
1 59 64 1
1 59 70 1
1 59 85 1
1 59 90 1
1 59 96 1
1 59 129 1
1 60 61 1
1 60 71 1
1 60 72 1
1 60 85 1
1 60 89 1
1 60 90 1
1 60 105 1
1 61 62 1
1 61 73 1
1 61 74 1
1 61 89 1
1 61 90 1
1 61 105 1
1 62 63 1
1 62 75 1
1 62 76 1
1 63 64 1
1 63 77 1
1 63 104 1
1 64 78 1
1 64 79 1
1 64 90 1
1 64 104 1
1 64 115 1
1 64 129 1
1 70 85 1
1 70 96 1
1 72 89 1
1 78 115 1
1 78 116 1
1 80 81 1
1 80 91 1
1 80 92 1
1 80 93 1
1 81 82 1
1 81 94 1
1 81 95 1
1 82 83 1
1 83 84 1
1 83 85 1
1 85 86 1
1 85 90 1
1 85 96 1
1 85 115 1
1 85 129 1
1 86 87 1
1 86 97 1
1 86 98 1
1 86 114 1
1 86 115 1
1 86 127 1
1 87 88 1
1 87 99 1
1 87 100 1
1 87 113 1
1 87 114 1
1 87 127 1
1 88 89 1
1 88 101 1
1 88 102 1
1 88 114 1
1 88 128 1
1 89 90 1
1 89 103 1
1 90 104 1
1 90 105 1
1 98 115 1
1 100 113 1
1 102 128 1
1 106 107 1
1 106 117 1
1 106 118 1
1 106 119 1
1 107 108 1
1 107 120 1
1 107 121 1
1 108 109 1
1 109 110 2
1 109 111 1
1 111 112 1
1 111 116 1
1 111 122 1
1 112 113 1
1 112 123 1
1 112 124 1
1 113 114 1
1 113 125 1
1 113 126 1
1 114 115 1
1 114 127 1
1 114 128 1
1 115 116 1
1 115 129 1
1 116 130 1
1 116 131 1
@<TRIPOS>SUBSTRUCTURE
1 RES1 132

