@<TRIPOS>MOLECULE
/Users/abdulahmed/Documents/GitHub/HER-metal-complex-ligands/Runs//6_mercaptonicotinonitrile/6_mercaptonicotinonitrile
37	42	1
SMALL
PartialCharges
****
Generated from molSimplify

@<TRIPOS>ATOM
1 Ni1	0.0  0.0  0.0 Ni	1 RES1 0.0
2 N1	-0.57644  6.920767  -0.072165 N.1	1 RES1 0.0
3 C1	-0.14058  5.843753  -0.061145 C.1	1 RES1 0.0
4 C2	0.40046  4.523857  -0.04776 C.2	1 RES1 0.0
5 C3	-0.437278  3.418385  -0.01444 C.3	1 RES1 0.0
6 N2	0.0  2.14  -0.0 N.pl3	1 RES1 0.0
7 C4	1.319004  1.964814  -0.0196 C.2	1 RES1 0.0
8 S1	1.787755  0.352245  -0.0 S.3	1 RES1 0.0
9 C5	2.247779  2.992296  -0.053136 C.2	1 RES1 0.0
10 C6	1.775774  4.302762  -0.067527 C.2	1 RES1 0.0
11 H1	-1.518055  3.518094  0.002364 H	1 RES1 0.0
12 H2	3.311408  2.780831  -0.067735 H	1 RES1 0.0
13 H3	2.481387  5.126468  -0.093748 H	1 RES1 0.0
14 N3	-0.072165  -6.920767  -0.57644 N.1	1 RES1 0.0
15 C7	-0.061145  -5.843753  -0.14058 C.1	1 RES1 0.0
16 C8	-0.04776  -4.523857  0.40046 C.2	1 RES1 0.0
17 C9	-0.01444  -3.418385  -0.437278 C.3	1 RES1 0.0
18 N4	-0.0  -2.14  0.0 N.pl3	1 RES1 0.0
19 C10	-0.0196  -1.964814  1.319004 C.2	1 RES1 0.0
20 S2	-0.0  -0.352245  1.787755 S.3	1 RES1 0.0
21 C11	-0.053136  -2.992296  2.247779 C.2	1 RES1 0.0
22 C12	-0.067527  -4.302762  1.775774 C.2	1 RES1 0.0
23 H4	0.002364  -3.518094  -1.518055 H	1 RES1 0.0
24 H5	-0.067735  -2.780831  3.311408 H	1 RES1 0.0
25 H6	-0.093748  -5.126468  2.481387 H	1 RES1 0.0
26 N5	-6.920767  -0.072165  0.57644 N.1	1 RES1 0.0
27 C13	-5.843753  -0.061145  0.14058 C.1	1 RES1 0.0
28 C14	-4.523857  -0.04776  -0.40046 C.2	1 RES1 0.0
29 C15	-3.418385  -0.01444  0.437278 C.3	1 RES1 0.0
30 N6	-2.14  0.0  0.0 N.pl3	1 RES1 0.0
31 C16	-1.964814  -0.0196  -1.319004 C.2	1 RES1 0.0
32 S3	-0.352245  0.0  -1.787755 S.3	1 RES1 0.0
33 C17	-2.992296  -0.053136  -2.247779 C.2	1 RES1 0.0
34 C18	-4.302762  -0.067527  -1.775774 C.2	1 RES1 0.0
35 H7	-3.518094  0.002364  1.518055 H	1 RES1 0.0
36 H8	-2.780831  -0.067735  -3.311408 H	1 RES1 0.0
37 H9	-5.126468  -0.093748  -2.481387 H	1 RES1 0.0
@<TRIPOS>BOND
1 1 6 1
1 1 8 1
1 1 18 1
1 1 20 1
1 1 30 1
1 1 32 1
1 2 3 3
1 3 4 1
1 4 5 1
1 4 10 2
1 5 6 1
1 5 11 1
1 6 7 1
1 7 8 1
1 7 9 2
1 9 10 1
1 9 12 1
1 10 13 1
1 14 15 3
1 15 16 1
1 16 17 1
1 16 22 2
1 17 18 1
1 17 23 1
1 18 19 1
1 19 20 1
1 19 21 2
1 21 22 1
1 21 24 1
1 22 25 1
1 26 27 3
1 27 28 1
1 28 29 1
1 28 34 2
1 29 30 1
1 29 35 1
1 30 31 1
1 31 32 1
1 31 33 2
1 33 34 1
1 33 36 1
1 34 37 1
@<TRIPOS>SUBSTRUCTURE
1 RES1 37

