@<TRIPOS>MOLECULE
/Users/abdulahmed/Documents/GitHub/HER-metal-complex-ligands/Runs//ni_thd_2_4methoxyphenol_4_s_1/ni_thd_2_4methoxyphenol_4_s_1_conf_1
65	68	1
SMALL
PartialCharges
****
Generated from molSimplify

@<TRIPOS>ATOM
1 Ni1	0.0  0.0  0.0 Ni	1 RES1 0.0
2 C1	8.346453  -0.484287  0.84167 C.3	1 RES1 0.0
3 O1	7.588417  -0.118756  -0.302083 O.3	1 RES1 0.0
4 C2	6.176901  0.004844  -0.208567 C.ar	1 RES1 0.0
5 C3	5.486302  0.653037  0.818033 C.ar	1 RES1 0.0
6 C4	4.105761  0.682894  0.972805 C.ar	1 RES1 0.0
7 C5	3.300902  0.0  0.0 C.ar	1 RES1 0.0
8 O2	2.0  0.0  0.0 O.3	1 RES1 0.0
9 C6	4.00731  -0.711187  -1.024934 C.ar	1 RES1 0.0
10 C7	5.391899  -0.704208  -1.107958 C.ar	1 RES1 0.0
11 H1	9.38384  -0.527563  0.583106 H	1 RES1 0.0
12 H2	8.02553  -1.443528  1.190617 H	1 RES1 0.0
13 H3	8.201186  0.242795  1.613128 H	1 RES1 0.0
14 H4	6.07115  1.171627  1.548729 H	1 RES1 0.0
15 H5	3.655335  1.200321  1.793954 H	1 RES1 0.0
16 H6	3.448203  -1.265487  -1.749539 H	1 RES1 0.0
17 H7	5.868636  -1.261139  -1.887349 H	1 RES1 0.0
18 C8	-3.369765  7.661345  -0.744787 C.3	1 RES1 0.0
19 O3	-2.590433  7.132874  0.318115 O.3	1 RES1 0.0
20 C9	-2.020449  5.837258  0.204557 C.ar	1 RES1 0.0
21 C10	-1.356472  5.339528  -0.919004 C.ar	1 RES1 0.0
22 C11	-0.893881  4.038794  -1.076609 C.ar	1 RES1 0.0
23 C12	-1.100368  3.112097  0.0 C.ar	1 RES1 0.0
24 O4	-0.666707  1.885604  0.0 O.3	1 RES1 0.0
25 C13	-1.828376  3.603954  1.132859 C.ar	1 RES1 0.0
26 C14	-2.269861  4.916444  1.21341 C.ar	1 RES1 0.0
27 H8	-3.713432  8.640155  -0.482637 H	1 RES1 0.0
28 H9	-4.210547  7.02367  -0.921863 H	1 RES1 0.0
29 H10	-2.772559  7.718423  -1.630782 H	1 RES1 0.0
30 H11	-1.18956  6.018874  -1.728652 H	1 RES1 0.0
31 H12	-0.397745  3.736464  -1.975133 H	1 RES1 0.0
32 H13	-2.038021  2.936801  1.942709 H	1 RES1 0.0
33 H14	-2.818283  5.228194  2.07767 H	1 RES1 0.0
34 C15	-3.684142  -3.919897  6.455054 C.3	1 RES1 0.0
35 O5	-2.300278  -3.803801  6.158673 O.3	1 RES1 0.0
36 C16	-1.872746  -3.002533  5.067076 C.ar	1 RES1 0.0
37 C17	-2.343068  -1.721593  4.768783 C.ar	1 RES1 0.0
38 C18	-2.010355  -0.978137  3.643032 C.ar	1 RES1 0.0
39 C19	-1.100366  -1.55603  2.695167 C.ar	1 RES1 0.0
40 O6	-0.666706  -0.942791  1.632988 O.3	1 RES1 0.0
41 C20	-0.657099  -2.891343  2.970382 C.ar	1 RES1 0.0
42 C21	-1.04285  -3.576342  4.113186 C.ar	1 RES1 0.0
43 H15	-3.814835  -4.558743  7.303403 H	1 RES1 0.0
44 H16	-4.195591  -4.336584  5.612622 H	1 RES1 0.0
45 H17	-4.084774  -2.951844  6.672468 H	1 RES1 0.0
46 H18	-3.018193  -1.27396  5.467876 H	1 RES1 0.0
47 H19	-2.420881  -0.002406  3.487096 H	1 RES1 0.0
48 H20	-0.007465  -3.375377  2.271392 H	1 RES1 0.0
49 H21	-0.690828  -4.575466  4.263955 H	1 RES1 0.0
50 C22	-3.09661  -3.089066  -7.174601 C.3	1 RES1 0.0
51 O7	-2.239491  -3.717841  -6.233119 O.3	1 RES1 0.0
52 C23	-1.911406  -3.057203  -5.019728 C.ar	1 RES1 0.0
53 C24	-2.815434  -2.389566  -4.19028 C.ar	1 RES1 0.0
54 C25	-2.485093  -1.649464  -3.061625 C.ar	1 RES1 0.0
55 C26	-1.100366  -1.55603  -2.695167 C.ar	1 RES1 0.0
56 O8	-0.666706  -0.942791  -1.632988 O.3	1 RES1 0.0
57 C27	-0.16463  -2.194941  -3.573506 C.ar	1 RES1 0.0
58 C28	-0.570459  -2.908334  -4.691719 C.ar	1 RES1 0.0
59 H22	-3.229472  -3.730979  -8.020293 H	1 RES1 0.0
60 H23	-2.660229  -2.165425  -7.492969 H	1 RES1 0.0
61 H24	-4.045988  -2.896997  -6.719969 H	1 RES1 0.0
62 H25	-3.852393  -2.453604  -4.446237 H	1 RES1 0.0
63 H26	-3.241557  -1.162925  -2.482021 H	1 RES1 0.0
64 H27	0.880993  -2.119005  -3.359482 H	1 RES1 0.0
65 H28	0.171021  -3.356723  -5.319456 H	1 RES1 0.0
@<TRIPOS>BOND
1 1 8 1
1 1 24 1
1 1 40 1
1 1 56 1
1 2 3 1
1 2 11 1
1 2 12 1
1 2 13 1
1 3 4 1
1 4 5 2
1 4 10 1
1 5 6 1
1 5 14 1
1 6 7 2
1 6 15 1
1 7 8 1
1 7 9 1
1 9 10 2
1 9 16 1
1 10 17 1
1 18 19 1
1 18 27 1
1 18 28 1
1 18 29 1
1 19 20 1
1 20 21 2
1 20 26 1
1 21 22 1
1 21 30 1
1 22 23 2
1 22 31 1
1 23 24 1
1 23 25 1
1 25 26 2
1 25 32 1
1 26 33 1
1 34 35 1
1 34 43 1
1 34 44 1
1 34 45 1
1 35 36 1
1 36 37 2
1 36 42 1
1 37 38 1
1 37 46 1
1 38 39 2
1 38 47 1
1 39 40 1
1 39 41 1
1 41 42 2
1 41 48 1
1 42 49 1
1 50 51 1
1 50 59 1
1 50 60 1
1 50 61 1
1 51 52 1
1 52 53 2
1 52 58 1
1 53 54 1
1 53 62 1
1 54 55 2
1 54 63 1
1 55 56 1
1 55 57 1
1 57 58 2
1 57 64 1
1 58 65 1
@<TRIPOS>SUBSTRUCTURE
1 RES1 65

