@<TRIPOS>MOLECULE
/Users/abdulahmed/Documents/GitHub/HER-metal-complex-ligands/Runs//ni_thd_2_4methoxyphenol_4_s_1/ni_thd_2_4methoxyphenol_4_s_1_conf_1
69	72	1
SMALL
PartialCharges
****
Generated from molSimplify

@<TRIPOS>ATOM
1 Ni1	0.0  0.0  0.0 Ni	1 RES1 0.0
2 C1	7.335009  3.294766  -1.113083 C.3	1 RES1 0.0
3 O1	5.970056  3.615472  -1.337693 O.3	1 RES1 0.0
4 C2	5.035107  2.705042  -0.98288 C.ar	1 RES1 0.0
5 C3	3.716166  3.079255  -1.080834 C.ar	1 RES1 0.0
6 C4	2.716521  2.182229  -0.757576 C.ar	1 RES1 0.0
7 C5	3.033964  0.919472  -0.319201 C.ar	1 RES1 0.0
8 O2	2.0  0.0  0.0 O.3	1 RES1 0.0
9 C6	4.352613  0.542861  -0.188458 C.ar	1 RES1 0.0
10 C7	5.389725  1.425735  -0.507142 C.ar	1 RES1 0.0
11 H1	7.955893  4.024659  -1.589172 H	1 RES1 0.0
12 H2	7.545694  2.327618  -1.519454 H	1 RES1 0.0
13 H3	7.531964  3.290363  -0.061376 H	1 RES1 0.0
14 H4	3.463449  4.066247  -1.40776 H	1 RES1 0.0
15 H5	1.690617  2.472159  -0.849011 H	1 RES1 0.0
16 H6	2.229523  -0.919472  0.319201 H	1 RES1 0.0
17 H7	4.587169  -0.440404  0.16236 H	1 RES1 0.0
18 H8	6.414863  1.140769  -0.394061 H	1 RES1 0.0
19 C8	-5.470693  5.845697  -1.340203 C.3	1 RES1 0.0
20 O3	-5.302534  4.457391  -1.586637 O.3	1 RES1 0.0
21 C9	-4.157937  3.870425  -1.16918 C.ar	1 RES1 0.0
22 C10	-4.06377  2.504761  -1.292999 C.ar	1 RES1 0.0
23 C11	-2.908137  1.853076  -0.907956 C.ar	1 RES1 0.0
24 C12	-1.855159  2.562087  -0.382563 C.ar	1 RES1 0.0
25 O4	-0.666707  1.885604  0.0 O.3	1 RES1 0.0
26 C13	-1.949129  3.92751  -0.225867 C.ar	1 RES1 0.0
27 C14	-3.104242  4.61912  -0.60536 C.ar	1 RES1 0.0
28 H9	-6.332824  6.199419  -1.866047 H	1 RES1 0.0
29 H10	-4.604592  6.375398  -1.678119 H	1 RES1 0.0
30 H11	-5.601375  6.008394  -0.29075 H	1 RES1 0.0
31 H12	-4.886297  1.945886  -1.687978 H	1 RES1 0.0
32 H13	-2.832815  0.791564  -1.019392 H	1 RES1 0.0
33 H14	0.100556  2.400339  0.382563 H	1 RES1 0.0
34 H15	-1.125625  4.467469  0.192686 H	1 RES1 0.0
35 H16	-3.1854  5.677755  -0.472677 H	1 RES1 0.0
36 C15	-2.14024  -6.510335  4.351058 C.3	1 RES1 0.0
37 O5	-1.755686  -6.187296  3.02284 O.3	1 RES1 0.0
38 C16	-1.487586  -4.893591  2.734129 C.ar	1 RES1 0.0
39 C17	-0.988763  -4.612868  1.484487 C.ar	1 RES1 0.0
40 C18	-0.721134  -3.30649  1.123665 C.ar	1 RES1 0.0
41 C19	-0.933674  -2.283815  2.01611 C.ar	1 RES1 0.0
42 O6	-0.666706  -0.942791  1.632988 O.3	1 RES1 0.0
43 C20	-1.405078  -2.555782  3.281644 C.ar	1 RES1 0.0
44 C21	-1.686685  -3.866751  3.679997 C.ar	1 RES1 0.0
45 H17	-2.477336  -7.525178  4.387947 H	1 RES1 0.0
46 H18	-2.931381  -5.860211  4.661435 H	1 RES1 0.0
47 H19	-1.301774  -6.389035  5.004633 H	1 RES1 0.0
48 H20	-0.807571  -5.406897  0.790523 H	1 RES1 0.0
49 H21	-0.346705  -3.090205  0.144929 H	1 RES1 0.0
50 H22	-0.820926  -0.197368  2.281495 H	1 RES1 0.0
51 H23	-1.558209  -1.751614  3.970676 H	1 RES1 0.0
52 H24	-2.040311  -4.082608  4.666534 H	1 RES1 0.0
53 C22	-0.060489  -5.946322  -5.525794 C.3	1 RES1 0.0
54 O7	0.723429  -5.514978  -4.423154 O.3	1 RES1 0.0
55 C23	0.336828  -4.398823  -3.764639 C.ar	1 RES1 0.0
56 C24	1.023646  -4.067117  -2.621185 C.ar	1 RES1 0.0
57 C25	0.690812  -2.92358  -1.921195 C.ar	1 RES1 0.0
58 C26	-0.338756  -2.122478  -2.352145 C.ar	1 RES1 0.0
59 O8	-0.666706  -0.942791  -1.632988 O.3	1 RES1 0.0
60 C27	-1.053836  -2.460528  -3.480042 C.ar	1 RES1 0.0
61 C28	-0.743563  -3.610983  -4.212715 C.ar	1 RES1 0.0
62 H25	0.451876  -6.730797  -6.042496 H	1 RES1 0.0
63 H26	-0.22041  -5.125015  -6.192712 H	1 RES1 0.0
64 H27	-1.003633  -6.308181  -5.173037 H	1 RES1 0.0
65 H28	1.816825  -4.69518  -2.272898 H	1 RES1 0.0
66 H29	1.237221  -2.660655  -1.039601 H	1 RES1 0.0
67 H30	-1.415843  -0.358706  -1.94546 H	1 RES1 0.0
68 H31	-1.859201  -1.833241  -3.800663 H	1 RES1 0.0
69 H32	-1.30554  -3.883343  -5.081565 H	1 RES1 0.0
@<TRIPOS>BOND
1 1 8 1
1 1 25 1
1 1 42 1
1 1 59 1
1 2 3 1
1 2 11 1
1 2 12 1
1 2 13 1
1 3 4 1
1 4 5 2
1 4 10 1
1 5 6 1
1 5 14 1
1 6 7 2
1 6 15 1
1 7 8 1
1 7 9 1
1 8 16 1
1 9 10 2
1 9 17 1
1 10 18 1
1 19 20 1
1 19 28 1
1 19 29 1
1 19 30 1
1 20 21 1
1 21 22 2
1 21 27 1
1 22 23 1
1 22 31 1
1 23 24 2
1 23 32 1
1 24 25 1
1 24 26 1
1 25 33 1
1 26 27 2
1 26 34 1
1 27 35 1
1 36 37 1
1 36 45 1
1 36 46 1
1 36 47 1
1 37 38 1
1 38 39 2
1 38 44 1
1 39 40 1
1 39 48 1
1 40 41 2
1 40 49 1
1 41 42 1
1 41 43 1
1 42 50 1
1 43 44 2
1 43 51 1
1 44 52 1
1 53 54 1
1 53 62 1
1 53 63 1
1 53 64 1
1 54 55 1
1 55 56 2
1 55 61 1
1 56 57 1
1 56 65 1
1 57 58 2
1 57 66 1
1 58 59 1
1 58 60 1
1 59 67 1
1 60 61 2
1 60 68 1
1 61 69 1
@<TRIPOS>SUBSTRUCTURE
1 RES1 69

